<?xml version="1.0" encoding="UTF-8"?>

<!-- generated on Tue Aug 20 11:14:42 2019 by Eclipse SUMO polyconvert Version 1.2.0
<configuration xmlns:xsi="http://www.w3.org/2001/XMLSchema-instance" xsi:noNamespaceSchemaLocation="http://sumo.dlr.de/xsd/polyconvertConfiguration.xsd">

    <input>
        <net-file value="osm.net.xml"/>
        <osm-files value="osm_bbox.osm.xml"/>
        <osm.keep-full-type value="true"/>
        <type-file value="/home/werer/sumo/data/typemap/osmPolyconvert.typ.xml"/>
    </input>

    <output>
        <output-file value="osm.poly.xml"/>
    </output>

    <processing>
        <poi-layer-offset value="5"/>
    </processing>

    <report>
        <verbose value="true"/>
    </report>

</configuration>
-->

<additional xmlns:xsi="http://www.w3.org/2001/XMLSchema-instance" xsi:noNamespaceSchemaLocation="http://sumo.dlr.de/xsd/additional_file.xsd">
    <location netOffset="-389926.09,-5819272.32" convBoundary="-6493.06,-3891.47,5928.67,3986.87" origBoundary="13.282814,52.477280,13.465648,52.548335" projParameter="+proj=utm +zone=33 +ellps=WGS84 +datum=WGS84 +units=m +no_defs"/>

    <poly id="100575040" type="leisure.park" color="207,245,201" fill="1" layer="-2.00" shape="1417.576765,1349.518671 1416.683399,1349.327070 1410.678861,1347.891319 1404.727356,1346.398760 1411.764440,1319.736578 1419.827805,1290.993027 1396.867144,1285.204317 1398.746242,1273.233793 1390.096132,1271.867906 1384.870830,1273.742050 1380.143612,1276.651141 1382.769575,1282.735306 1374.822986,1285.849394 1368.566074,1288.336220 1366.216025,1282.757808 1355.963460,1287.781435 1357.532669,1289.371230 1357.094357,1291.639871 1355.065135,1292.564007 1354.465391,1295.815464 1348.184096,1293.840678 1348.452952,1292.499392 1336.824850,1295.483862 1328.133663,1297.768862 1327.374531,1299.343590 1323.738036,1300.325689 1321.698034,1299.235976 1317.780260,1286.025461 1318.440140,1285.788253 1317.604890,1282.713320 1315.968969,1278.120557 1304.581197,1283.369804 1292.010851,1289.157220 1288.862569,1290.729392 1286.491536,1293.986827 1289.749969,1299.511640 1284.457545,1302.333234 1285.084783,1303.376425 1282.478732,1311.635394 1280.006997,1319.524169 1277.933491,1326.091036 1273.961062,1324.476768 1269.538734,1327.356941 1287.412656,1344.307807 1293.064730,1345.762366 1300.963987,1347.856927 1307.823948,1349.607373 1313.592074,1351.092761 1318.589428,1352.406104 1324.371362,1353.902325 1340.816248,1358.166226 1357.468685,1362.303169 1374.271322,1366.481344 1380.196173,1367.996712 1385.520345,1369.358506 1391.260793,1370.822343 1397.888557,1372.511300 1402.926567,1373.823826 1409.457868,1375.448174 1410.522798,1375.724988 1412.380848,1368.617709 1417.576765,1349.518671"/>
    <poly id="100575042" type="building.residential" color="255,230,230" fill="1" layer="-1.00" shape="1385.650262,1392.946205 1391.260793,1370.822343 1385.520345,1369.358506 1384.905158,1371.608815 1385.349559,1371.754738 1383.972305,1377.282360 1384.399199,1377.862648 1383.698390,1378.701649 1382.399602,1378.285373 1382.537488,1377.770441 1378.748556,1376.775166 1378.609319,1377.534936 1376.875382,1377.083810 1376.682827,1376.053215 1377.577906,1375.710644 1378.848588,1370.274407 1379.565574,1370.469917 1380.196173,1367.996712 1374.271322,1366.481344 1372.150759,1374.907527 1368.734494,1388.559081 1385.650262,1392.946205"/>
    <poly id="100950874" type="building.commercial" color="255,230,230" fill="1" layer="-1.00" shape="1722.231041,1056.610462 1702.901240,1048.069336 1698.756371,1037.745625 1710.489327,1017.378411 1723.844252,1024.605173 1722.231041,1056.610462"/>
    <poly id="100950876" type="building.commercial" color="255,230,230" fill="1" layer="-1.00" shape="1760.568570,998.377354 1749.415332,1017.040220 1747.000021,1021.077327 1747.567971,1065.163436 1747.636465,1070.714593 1749.005520,1074.612351 1750.961247,1078.029774 1753.598481,1081.265208 1758.593956,1085.249670 1761.771180,1086.815153 1781.583318,1094.466757 1813.408451,1026.863995 1760.568570,998.377354"/>
    <poly id="100950877" type="building.commercial" color="255,230,230" fill="1" layer="-1.00" shape="1792.418103,1033.470501 1772.723627,1075.345177 1766.471735,1073.168904 1763.795302,1071.536703 1762.191583,1068.690126 1761.140629,1063.216337 1762.849909,1031.553900 1788.250749,1031.637574 1792.418103,1033.470501"/>
    <poly id="100950878" type="building.commercial" color="255,230,230" fill="1" layer="-1.00" shape="1731.203269,1074.672346 1736.524207,1060.845426 1737.942733,1028.933473 1737.863155,1025.029446 1736.320572,1020.345470 1733.833956,1016.249886 1729.881305,1012.464927 1725.931743,1010.660616 1704.441688,999.285225 1685.187291,1033.416848 1683.414102,1039.476128 1683.548157,1045.226132 1685.239703,1051.731723 1692.094200,1059.358211 1731.203269,1074.672346"/>
    <poly id="102522991" type="landuse.construction" color="194,194,130" fill="1" layer="-3.00" shape="2116.969429,726.116732 2032.757013,738.678442 2022.823582,738.864200 1997.515040,721.496101 1961.132819,694.491272 1962.776805,686.554405 1995.408222,642.325408 2002.268639,639.759343 2007.000060,638.842632 2013.247762,638.348701 2016.562176,639.354950 2100.190190,696.275283 2106.992982,686.477717 2205.079753,757.068399 2201.908715,761.333331 2229.760825,782.051475 2217.552249,799.746077 2154.884260,752.799594 2116.969429,726.116732"/>
    <poly id="102979498" type="landuse.civic_admin" color="194,194,130" fill="1" layer="-3.00" shape="181.962988,553.930673 177.610410,553.572095 73.108170,544.389635 61.831023,543.407739 17.354133,539.499601 -18.545776,536.344927 -35.623835,530.975787 -49.705762,580.365681 -50.964210,584.778303 -54.028370,595.529824 -66.181839,607.798807 -220.065921,611.395217 -215.831912,779.217610 -222.005658,779.367769 -228.607086,779.516441 -236.280231,779.700388 -247.535902,779.953917 -257.800769,780.196279 -272.857575,780.457605 -284.640440,780.812120 -284.215141,799.686339 -283.910515,811.096553 -283.135298,840.378470 -281.507151,902.089711 -280.967854,922.407973 -280.745716,930.759915 -261.325370,948.549610 -228.491136,975.440189 -176.550190,1018.291971 -165.580990,1027.047385 -159.636265,1030.607982 -155.289529,1033.136290 -145.285859,1036.995014 -135.753189,1019.020587 -120.999640,990.835834 -116.033643,978.350040 -112.796042,951.492710 -110.165636,931.737419 -40.891654,944.300431 40.637247,942.512466 138.932994,939.559379 155.312948,939.603436 152.771811,953.403211 162.800848,953.256011 181.635964,954.725039 206.162300,956.633971 207.826535,933.996237 211.097312,934.256693 227.778336,935.618437 255.533559,937.733389 252.764497,927.457836 243.084050,891.999468 233.417441,854.137219 226.244184,856.022903 226.617287,857.828352 209.430243,862.364517 171.464386,855.660631 162.911629,855.963846 165.205823,829.038912 166.837316,809.484277 168.072843,794.667810 168.403589,790.954857 167.576261,783.428829 173.578807,721.501906 174.339867,715.486989 175.210401,706.787835 176.952352,687.008177 179.905457,653.135911 180.424035,647.204330 172.661628,646.443776 181.962988,553.930673"/>
    <poly id="104191066" type="building.yes" color="255,230,230" fill="1" layer="-1.00" shape="342.536474,1388.925923 352.898293,1374.895360 342.843850,1367.509307 332.481793,1381.528768 342.536474,1388.925923"/>
    <poly id="104191068" type="building.yes" color="255,230,230" fill="1" layer="-1.00" shape="364.859310,1373.470077 370.333417,1366.058779 357.249560,1356.448258 351.775211,1363.848448 357.792852,1368.275975 364.859310,1373.470077"/>
    <poly id="104191071" type="building.commercial" color="255,230,230" fill="1" layer="-1.00" shape="214.270635,1172.530168 207.719261,1170.952351 200.560607,1169.232379 201.198116,1165.579310 201.348752,1164.730223 203.723523,1151.078862 208.208118,1152.202296 209.074188,1152.383164 209.154646,1152.036400 225.424215,1155.966717 243.449486,1160.402968 239.105758,1178.571811 227.209555,1175.644993 218.266458,1213.891296 205.329627,1210.865474 214.270635,1172.530168"/>
    <poly id="104191078" type="building.yes" color="255,230,230" fill="1" layer="-1.00" shape="352.898293,1374.895360 357.792852,1368.275975 351.775211,1363.848448 349.627746,1366.756392 345.590691,1363.786734 342.843850,1367.509307 352.898293,1374.895360"/>
    <poly id="104287992" type="building.yes" color="255,230,230" fill="1" layer="-1.00" shape="326.436782,1384.056710 336.964673,1392.277826 340.323387,1387.996279 329.795493,1379.775156 326.436782,1384.056710"/>
    <poly id="104287994" type="building.yes" color="255,230,230" fill="1" layer="-1.00" shape="443.304139,1384.320842 452.482665,1377.449855 445.557316,1368.246496 436.378781,1375.117496 443.304139,1384.320842"/>
    <poly id="104288001" type="building.yes" color="255,230,230" fill="1" layer="-1.00" shape="445.657632,1366.664115 453.338289,1376.863187 457.149826,1374.007061 449.469173,1363.807983 445.657632,1366.664115"/>
    <poly id="104288005" type="building.yes" color="255,230,230" fill="1" layer="-1.00" shape="429.125785,1379.775494 445.553453,1367.467643 438.320376,1357.859457 421.892443,1370.156210 429.125785,1379.775494"/>
    <poly id="104314730" type="building.yes" color="255,230,230" fill="1" layer="-1.00" shape="270.996223,1349.724281 277.288723,1339.768531 307.028922,1358.475127 295.636638,1376.490360 265.903282,1357.783682 258.482091,1353.120676 245.394985,1344.890356 250.487907,1336.830934 270.996223,1349.724281"/>
    <poly id="104314733" type="building.yes" color="255,230,230" fill="1" layer="-1.00" shape="319.692877,1314.826542 320.194506,1312.678777 326.998877,1283.460674 343.913125,1287.410301 341.478923,1295.999807 336.589702,1294.985473 332.566386,1311.711575 336.975432,1312.803430 335.025606,1317.565279 319.692877,1314.826542"/>
    <poly id="104314734" type="building.yes" color="255,230,230" fill="1" layer="-1.00" shape="383.682243,1317.509969 393.578890,1321.182985 390.518074,1329.374775 380.628224,1325.701612 383.682243,1317.509969"/>
    <poly id="104314738" type="building.yes" color="255,230,230" fill="1" layer="-1.00" shape="387.927873,1305.853172 390.562447,1298.327464 368.441525,1293.125617 364.133322,1305.017515 369.945823,1306.345022 386.322534,1310.240067 387.927873,1305.853172"/>
    <poly id="104392614" type="building.yes" color="255,230,230" fill="1" layer="-1.00" shape="520.909631,1097.369862 523.481557,1098.558628 527.073914,1090.444068 548.282262,1100.941595 539.203500,1120.495718 517.361917,1110.513147 515.613051,1109.706567 520.909631,1097.369862"/>
    <poly id="104393529" type="building.yes" color="255,230,230" fill="1" layer="-1.00" shape="616.094003,1250.528335 592.358454,1244.749546 588.262583,1261.610558 586.819516,1267.495991 590.731291,1269.723090 592.463490,1267.358673 593.809599,1261.386388 604.340356,1263.977393 601.601269,1275.344364 607.083098,1279.795298 613.093716,1262.357372 616.094003,1250.528335"/>
    <poly id="104393530" type="building.yes" color="255,230,230" fill="1" layer="-1.00" shape="554.192339,1289.624171 558.190716,1273.266052 564.007920,1274.805109 567.904430,1256.924784 571.946780,1239.797885 558.734433,1236.577002 553.302060,1235.251896 549.771592,1250.075057 549.473575,1251.316898 554.756685,1252.645337 558.585858,1253.605701 561.295748,1254.290652 559.153106,1262.884642 558.860131,1264.048475 558.293288,1266.320075 551.756230,1264.763741 550.009346,1264.346576 541.302554,1262.282401 540.830015,1264.218063 539.922528,1264.004680 539.137650,1263.810810 537.404332,1263.393347 533.491965,1279.649412 537.014851,1280.572099 535.896004,1285.170612 554.192339,1289.624171"/>
    <poly id="104393531" type="building.yes" color="255,230,230" fill="1" layer="-1.00" shape="536.161490,1332.234845 537.827293,1334.489888 532.047228,1339.159290 531.040749,1337.857609 527.263558,1340.735162 494.185306,1298.088371 497.646094,1295.629598 505.029051,1290.401288 507.554501,1293.460537 513.623708,1300.802556 520.478027,1295.608353 518.817429,1293.586880 524.707321,1294.734795 528.411870,1295.586646 571.479712,1305.717676 536.161490,1332.234845"/>
    <poly id="104393532" type="building.yes" color="255,230,230" fill="1" layer="-1.00" shape="603.345326,1289.904909 642.787626,1264.152918 644.162395,1257.334304 616.094003,1250.528335 613.093716,1262.357372 628.350577,1265.955554 607.083098,1279.795298 601.635035,1287.784372 603.345326,1289.904909"/>
    <poly id="104393533" type="building.yes" color="255,230,230" fill="1" layer="-1.00" shape="487.354847,1258.248262 475.764282,1255.314012 472.122471,1271.519566 459.101825,1268.372555 464.176440,1250.076293 456.980846,1248.212121 473.066518,1215.748639 494.550211,1220.976354 491.430620,1235.044813 477.658180,1231.669764 474.226336,1245.734097 489.855423,1249.579460 487.354847,1258.248262"/>
    <poly id="104393534" type="building.yes" color="255,230,230" fill="1" layer="-1.00" shape="592.358454,1244.749546 571.946780,1239.797885 567.904430,1256.924784 573.741642,1257.840255 574.913491,1253.485377 583.315254,1255.567560 580.603096,1266.922814 579.824755,1266.717664 578.634972,1271.484667 570.422617,1269.676450 569.131059,1275.658650 575.040993,1277.095497 573.041616,1285.419213 571.976442,1290.294708 575.115186,1291.036842 576.530570,1286.342687 579.337997,1280.159678 581.836756,1275.652726 584.428048,1271.944902 586.819516,1267.495991 588.262583,1261.610558 592.358454,1244.749546"/>
    <poly id="104786904" type="natural.grassland" color="140,196,107" fill="1" layer="-4.00" shape="1082.527685,694.958627 1087.864925,633.114817 1068.468166,631.454475 1063.124382,693.298461 1082.527685,694.958627"/>
    <poly id="104786906" type="building.yes" color="255,230,230" fill="1" layer="-1.00" shape="1096.719372,799.498627 1160.043615,811.087066 1153.038968,821.179829 1149.351052,825.968842 1144.877803,831.765686 1142.971254,834.245045 1128.872716,833.323480 1117.493173,832.575145 1118.093936,825.406704 1139.601131,827.075910 1140.931583,820.058158 1101.072808,813.333571 1099.555980,814.413321 1097.706913,823.746049 1098.737751,824.924897 1098.536135,825.930871 1097.689699,826.328046 1097.468480,831.028835 1093.981341,830.805984 1090.677384,830.579059 1091.078632,828.478132 1094.937303,809.096929 1096.546148,799.035121 1096.719372,799.498627"/>
    <poly id="104786907" type="building.residential" color="255,230,230" fill="1" layer="-1.00" shape="1125.492308,781.143265 1124.217129,794.001805 1084.527191,786.639313 1087.625836,754.455971 1101.253896,755.577064 1102.449904,741.907961 1115.757631,742.969457 1114.620341,755.313059 1106.802541,754.485504 1105.517831,768.134324 1113.413314,768.793234 1112.952179,774.000103 1112.487519,779.963730 1125.492308,781.143265"/>
    <poly id="104786910" type="building.yes" color="255,230,230" fill="1" layer="-1.00" shape="1203.205663,807.935249 1215.877105,791.373851 1199.781510,778.790193 1200.487433,777.873161 1199.706929,777.267364 1202.781272,773.270966 1203.492447,773.811539 1204.435942,772.588781 1208.392986,775.627686 1209.151705,774.642717 1225.933162,787.544991 1233.192771,778.225608 1243.246549,781.318224 1223.076364,807.437930 1215.588261,817.163004 1203.205663,807.935249"/>
    <poly id="104786915" type="building.yes" color="255,230,230" fill="1" layer="-1.00" shape="1200.718238,801.080281 1187.190559,798.665880 1186.073646,804.911062 1199.576148,807.415041 1200.718238,801.080281"/>
    <poly id="104786916" type="building.yes" color="255,230,230" fill="1" layer="-1.00" shape="1229.011704,733.340630 1224.171520,750.428970 1262.252191,761.433701 1267.053125,747.462011 1264.387959,746.352820 1261.833661,744.428851 1259.131447,742.263361 1255.431664,740.720930 1241.120964,736.676882 1229.011704,733.340630"/>
    <poly id="104991245" type="building.yes" color="255,230,230" fill="1" layer="-1.00" shape="1121.330441,1112.138672 1107.755213,1116.702612 1111.337609,1127.316572 1125.158515,1168.270391 1138.733860,1163.717620 1121.330441,1112.138672"/>
    <poly id="104991246" type="building.yes" color="255,230,230" fill="1" layer="-1.00" shape="1011.309163,1160.467073 1010.026640,1156.823509 1025.246434,1151.443733 1026.540534,1154.998021 1011.309163,1160.467073"/>
    <poly id="105187864" type="building.yes" color="255,230,230" fill="1" layer="-1.00" shape="591.647860,746.300568 586.106193,745.879194 580.720074,745.432093 578.734234,745.265063 576.925291,745.116335 574.266279,744.897592 574.945161,736.703564 575.867902,724.843076 565.970091,723.895966 564.914168,735.870712 564.336357,742.816181 563.808170,749.248666 563.380294,754.399225 563.256826,755.859713 562.988472,759.037104 562.828454,760.988028 562.662398,762.972469 562.178189,768.335714 572.679245,769.247070 573.108193,763.840551 573.258127,762.045642 573.450402,759.715656 573.696349,756.750193 573.863653,754.821362 575.509264,754.951486 577.597119,755.127360 579.718897,755.302478 585.281654,755.756756 590.840680,756.044209 591.647860,746.300568"/>
    <poly id="105187864#1" type="landuse.commercial" color="209,209,204" fill="1" layer="-3.00" shape="591.647860,746.300568 586.106193,745.879194 580.720074,745.432093 578.734234,745.265063 576.925291,745.116335 574.266279,744.897592 574.945161,736.703564 575.867902,724.843076 565.970091,723.895966 564.914168,735.870712 564.336357,742.816181 563.808170,749.248666 563.380294,754.399225 563.256826,755.859713 562.988472,759.037104 562.828454,760.988028 562.662398,762.972469 562.178189,768.335714 572.679245,769.247070 573.108193,763.840551 573.258127,762.045642 573.450402,759.715656 573.696349,756.750193 573.863653,754.821362 575.509264,754.951486 577.597119,755.127360 579.718897,755.302478 585.281654,755.756756 590.840680,756.044209 591.647860,746.300568"/>
    <poly id="105187865" type="building.office" color="255,230,230" fill="1" layer="-1.00" shape="621.251677,680.441799 719.670463,687.946693 712.600158,755.260080 710.636774,776.769208 708.662079,798.378741 570.923420,786.957095 560.776941,786.115709 524.856162,783.135642 531.906095,706.530724 567.272147,709.267329 566.533949,717.540578 541.420159,715.509412 539.324713,740.793874 564.336357,742.816181 563.808170,749.248666 563.380294,754.399225 541.450357,752.675217 539.358986,777.837186 561.243061,779.640100 562.178189,768.335714 572.679245,769.247070 571.719014,780.340588 587.189028,781.563730 588.309784,767.629068 599.415161,768.549227 599.847372,763.287299 621.860884,765.109847 621.058446,774.764354 684.942556,780.035928 689.169168,729.177063 700.043181,730.069236 701.156341,716.691166 651.505089,712.592455 652.425062,701.510988 637.701883,700.304327 635.631653,725.220952 617.657760,723.742034 620.471384,689.873256 621.251677,680.441799"/>
    <poly id="105187865#1" type="landuse.commercial" color="209,209,204" fill="1" layer="-3.00" shape="621.251677,680.441799 719.670463,687.946693 712.600158,755.260080 710.636774,776.769208 708.662079,798.378741 570.923420,786.957095 560.776941,786.115709 524.856162,783.135642 531.906095,706.530724 567.272147,709.267329 566.533949,717.540578 541.420159,715.509412 539.324713,740.793874 564.336357,742.816181 563.808170,749.248666 563.380294,754.399225 541.450357,752.675217 539.358986,777.837186 561.243061,779.640100 562.178189,768.335714 572.679245,769.247070 571.719014,780.340588 587.189028,781.563730 588.309784,767.629068 599.415161,768.549227 599.847372,763.287299 621.860884,765.109847 621.058446,774.764354 684.942556,780.035928 689.169168,729.177063 700.043181,730.069236 701.156341,716.691166 651.505089,712.592455 652.425062,701.510988 637.701883,700.304327 635.631653,725.220952 617.657760,723.742034 620.471384,689.873256 621.251677,680.441799"/>
    <poly id="105187866" type="building.yes" color="255,230,230" fill="1" layer="-1.00" shape="635.631653,725.220952 633.192724,754.596892 622.808483,753.749561 621.860884,765.109847 599.847372,763.287299 600.388675,756.832270 590.840680,756.044209 591.647860,746.300568 592.401867,737.214649 616.373954,739.193694 617.657760,723.742034 635.631653,725.220952"/>
    <poly id="105187866#1" type="landuse.commercial" color="209,209,204" fill="1" layer="-3.00" shape="635.631653,725.220952 633.192724,754.596892 622.808483,753.749561 621.860884,765.109847 599.847372,763.287299 600.388675,756.832270 590.840680,756.044209 591.647860,746.300568 592.401867,737.214649 616.373954,739.193694 617.657760,723.742034 635.631653,725.220952"/>
    <poly id="105347619" type="building.apartments" color="255,230,230" fill="1" layer="-1.00" shape="544.465272,993.099456 544.258125,993.549196 543.429286,995.337037 537.580336,992.697061 539.937879,987.636869 536.037643,984.419179 535.588749,984.985605 532.827009,982.899733 533.275157,982.299941 528.389828,978.436631 526.831520,980.385452 525.929981,982.564391 526.725421,982.924940 525.300544,985.983546 518.329423,983.246290 511.358046,980.497922 514.996876,970.512866 514.539986,968.597996 515.045344,967.217984 516.390766,966.676011 518.411208,961.111475 519.612619,959.593488 518.582592,958.759697 520.858007,955.793339 521.936270,956.659434 522.741818,955.651049 529.039361,960.439747 529.473942,959.840259 539.539338,967.693828 540.383106,966.573314 543.892982,969.332374 547.409887,972.102408 546.606327,973.199765 557.030920,981.334655 552.700221,990.433808 549.306942,987.727772 545.749838,988.319201 543.797493,992.680411 544.465272,993.099456"/>
    <poly id="105347629" type="building.apartments" color="255,230,230" fill="1" layer="-1.00" shape="572.222418,1017.182205 582.716409,1006.264986 589.176049,1012.541244 595.642457,1018.817359 595.660466,1022.355562 578.358428,1039.645349 566.983021,1031.175593 569.254738,1028.954896 575.339299,1023.010189 576.787182,1021.586854 572.222418,1017.182205"/>
    <poly id="105347632" type="building.residential" color="255,230,230" fill="1" layer="-1.00" shape="560.063246,1004.323423 560.486745,1003.835462 555.797663,999.033010 553.990888,1000.798209 554.462916,1001.266143 552.130948,1003.221130 554.251463,1005.165565 551.270912,1011.808688 549.834026,1011.295566 548.694605,1013.157119 543.733446,1009.239852 547.195561,1001.973930 550.035247,996.012743 552.700221,990.433808 557.030920,981.334655 569.651625,993.582216 582.716409,1006.264986 572.222418,1017.182205 570.802915,1018.660545 564.421698,1025.301808 564.262358,1025.461159 559.701924,1021.857619 561.144083,1020.178470 560.728074,1019.787176 568.273163,1012.073880 563.652437,1007.292149 563.177468,1007.603218 560.063246,1004.323423"/>
    <poly id="105347635" type="building.hotel" color="255,230,230" fill="1" layer="-1.00" shape="442.786283,1059.837401 448.821930,1061.115504 451.103601,1059.039186 453.553012,1052.630439 455.809608,1046.704500 468.053697,1050.914906 464.168682,1061.417389 459.086739,1075.151445 444.931490,1072.586235 429.733761,1069.844109 420.308380,1068.141183 423.151425,1053.244293 429.450674,1054.471960 429.172217,1055.980434 430.098861,1057.350650 432.716948,1057.870674 432.978976,1056.841059 436.235776,1057.391296 436.119575,1057.961410 442.903232,1059.300653 442.786283,1059.837401"/>
    <poly id="105347637" type="building.apartments" color="255,230,230" fill="1" layer="-1.00" shape="407.871175,1065.915952 409.818141,1054.956073 416.914632,1056.321658 418.737584,1046.188010 424.287590,1047.298915 423.151425,1053.244293 420.308380,1068.141183 407.871175,1065.915952"/>
    <poly id="105347640" type="building.apartments" color="255,230,230" fill="1" layer="-1.00" shape="390.690726,1062.840004 392.741719,1051.677488 397.990729,1052.683827 405.946025,1054.208207 409.818141,1054.956073 407.871175,1065.915952 390.690726,1062.840004"/>
    <poly id="105349132" type="building.hotel" color="255,230,230" fill="1" layer="-1.00" shape="491.479023,1071.900508 487.929156,1070.689131 489.303073,1067.175417 492.921531,1068.418643 493.745858,1066.430594 496.044379,1060.859823 500.310510,1062.533671 511.270037,1069.098613 503.448819,1085.698086 488.349904,1079.481726 490.487518,1074.304023 491.479023,1071.900508"/>
    <poly id="105349133" type="building.commercial" color="255,230,230" fill="1" layer="-1.00" shape="505.244976,993.965670 506.013620,991.611656 507.557456,991.443583 507.973303,990.310382 513.757051,992.462163 513.959965,991.823345 515.534538,992.422398 517.109110,993.021451 516.878311,993.627510 520.478701,994.971311 522.096084,996.270453 522.348032,996.609776 522.505994,996.995712 522.562690,997.406168 522.511086,997.830175 522.349938,998.212121 522.099599,998.551552 521.772642,998.803676 520.998917,999.110304 520.593601,999.197265 519.766415,999.238025 518.846703,1001.817970 520.025958,1003.861341 522.464054,1004.830547 522.805459,1004.010588 528.752934,1006.503683 528.364537,1007.346948 530.796592,1008.349677 533.634082,1001.987932 533.298916,1001.873024 537.580336,992.697061 543.429286,995.337037 544.334515,995.750771 542.448842,999.754405 547.195561,1001.973930 543.733446,1009.239852 543.059225,1010.657021 538.337094,1008.626121 534.144697,1017.533028 538.896762,1019.385211 536.964609,1023.434398 500.789588,1009.621875 501.046028,1008.948476 500.051239,1007.869092 500.925191,1005.368061 502.390597,1005.335273 506.193521,995.101728 505.244976,993.965670"/>
    <poly id="105349135" type="building.hotel" color="255,230,230" fill="1" layer="-1.00" shape="496.723931,1074.242367 495.995395,1075.961207 498.304064,1076.911041 500.244525,1077.179198 501.688389,1075.577886 501.561492,1074.456828 502.829726,1071.679910 503.663749,1071.338546 504.223366,1069.957318 502.904192,1068.940830 501.229923,1069.345505 499.127266,1068.502337 498.646324,1069.759400 497.411470,1070.387927 496.163591,1073.164391 496.723931,1074.242367"/>
    <poly id="105349136" type="building.apartments" color="255,230,230" fill="1" layer="-1.00" shape="500.694923,1047.558315 501.133095,1047.726554 499.922980,1051.281111 499.408938,1051.058931 497.998783,1054.773752 499.226650,1056.259645 499.753016,1056.425910 500.028313,1055.685323 501.190037,1055.125199 501.335871,1054.665701 509.304116,1057.681068 509.815185,1056.556864 512.789892,1057.847891 511.722869,1060.820603 514.659172,1061.912191 512.805731,1065.837223 511.270037,1069.098613 500.310510,1062.533671 496.044379,1060.859823 481.157369,1055.017084 482.739549,1050.497213 483.820168,1050.862500 483.980564,1050.447186 485.333547,1050.850889 490.077799,1038.704554 488.900706,1038.274658 489.067390,1037.836948 487.760151,1037.354326 489.443112,1032.787693 492.085475,1033.785696 525.942898,1046.559479 522.629920,1053.510507 519.318309,1052.026713 518.710034,1051.840022 519.387859,1049.977661 516.061365,1048.739011 514.943365,1051.557075 512.166891,1050.328378 512.586964,1049.384253 504.309435,1046.197757 504.623697,1045.378404 504.326631,1044.539345 504.595642,1043.821154 504.007719,1043.634009 502.007301,1044.023726 500.694923,1047.558315"/>
    <poly id="105349138" type="building.apartments" color="255,230,230" fill="1" layer="-1.00" shape="520.034763,1037.934149 528.568851,1041.059295 525.942898,1046.559479 492.085475,1033.785696 496.437520,1021.703784 500.789588,1009.621875 536.964609,1023.434398 534.176991,1029.294279 524.580563,1026.014844 523.630981,1028.473052 520.557233,1027.306639 520.926270,1026.508317 512.715374,1022.964228 512.987374,1022.379502 512.708986,1021.161684 512.925716,1020.533684 510.417961,1021.001514 509.129721,1024.402028 509.491212,1024.783409 508.205462,1028.295145 507.548385,1028.354356 506.238736,1032.011287 507.707407,1034.248478 508.041079,1034.296651 508.449143,1033.119113 509.201762,1032.779572 509.422539,1032.029076 517.773221,1035.147180 518.135290,1034.037438 521.032892,1035.218917 520.034763,1037.934149"/>
    <poly id="105350238" type="building.commercial" color="255,230,230" fill="1" layer="-1.00" shape="344.279489,1014.784260 357.722754,1017.977161 357.604069,1018.436056 356.463627,1024.793273 351.316092,1023.773576 348.422120,1023.059477 343.058288,1021.777570 343.335226,1020.202357 344.279489,1014.784260"/>
    <poly id="105350239" type="building.yes" color="255,230,230" fill="1" layer="-1.00" shape="378.157650,1088.758970 389.722704,1090.836742 386.784770,1107.249150 375.219753,1105.171385 378.157650,1088.758970"/>
    <poly id="105350241" type="building.commercial" color="255,230,230" fill="1" layer="-1.00" shape="369.729354,1028.546569 356.366790,1025.318445 356.463627,1024.793273 357.604069,1018.436056 375.675199,1022.782757 373.781933,1033.107169 369.012585,1032.001088 369.729354,1028.546569"/>
    <poly id="105350242" type="building.yes" color="255,230,230" fill="1" layer="-1.00" shape="353.618008,1084.100956 365.831817,1086.353308 362.838770,1103.634929 350.517950,1101.451750 353.618008,1084.100956"/>
    <poly id="105350243" type="building.apartments" color="255,230,230" fill="1" layer="-1.00" shape="389.698319,1026.107415 384.518923,1024.876971 375.770677,1022.802873 377.430410,1015.688473 386.219374,1017.761662 390.306817,1018.727245 390.554772,1017.675687 399.043972,1019.699974 398.132122,1023.537198 397.109117,1027.866531 389.698319,1026.107415"/>
    <poly id="105350244" type="building.apartments" color="255,230,230" fill="1" layer="-1.00" shape="397.109117,1027.866531 392.741719,1051.677488 390.690726,1062.840004 379.868325,1060.890252 378.355503,1060.623691 369.046163,1058.951646 371.029958,1048.124456 378.321969,1049.429968 378.394276,1048.415726 379.327951,1048.583983 380.607314,1049.033818 381.127151,1049.211345 382.751148,1050.198718 385.333829,1050.652743 386.346778,1044.966052 385.617378,1044.826601 387.088137,1036.548028 388.354394,1029.442445 389.096618,1029.548226 389.698319,1026.107415 397.109117,1027.866531"/>
    <poly id="105350245" type="building.apartments" color="255,230,230" fill="1" layer="-1.00" shape="335.563066,1028.065761 337.213046,1019.004214 343.335226,1020.202357 343.058288,1021.777570 342.517235,1024.894324 337.572861,1053.236118 328.385856,1051.572536 319.192060,1049.909123 323.242129,1026.795118 329.356024,1027.926663 327.943729,1035.781093 327.236960,1039.680503 333.725964,1040.892668 334.135701,1038.580050 333.501526,1038.449601 334.010649,1038.148872 335.788192,1028.116355 335.563066,1028.065761"/>