<?xml version="1.0" encoding="UTF-8"?>

<!-- generated on Fri Sep 20 10:06:04 2019 by Eclipse SUMO polyconvert Version 1.2.0
<configuration xmlns:xsi="http://www.w3.org/2001/XMLSchema-instance" xsi:noNamespaceSchemaLocation="http://sumo.dlr.de/xsd/polyconvertConfiguration.xsd">

    <input>
        <net-file value="osm.net.xml"/>
        <osm-files value="osm_bbox.osm.xml"/>
        <osm.keep-full-type value="true"/>
        <type-file value="/usr/share/sumo/data/typemap/osmPolyconvert.typ.xml"/>
    </input>

    <output>
        <output-file value="osm.poly.xml"/>
    </output>

    <processing>
        <poi-layer-offset value="5"/>
    </processing>

    <report>
        <verbose value="true"/>
    </report>

</configuration>
-->

<additional xmlns:xsi="http://www.w3.org/2001/XMLSchema-instance" xsi:noNamespaceSchemaLocation="http://sumo.dlr.de/xsd/additional_file.xsd">
    <location netOffset="-633360.43,-3925331.46" convBoundary="0.00,0.00,1640.70,2227.09" origBoundary="-97.530043,35.462402,-97.511930,35.482421" projParameter="+proj=utm +zone=14 +ellps=WGS84 +datum=WGS84 +units=m +no_defs"/>

    <poly id="113737390" type="building.yes" color="255,230,230" fill="1" layer="-1.00" shape="886.104190,796.601023 886.577978,821.303796 823.850650,822.238741 823.975888,797.522765 827.988331,795.641395 835.290284,793.487581 840.592463,792.146967 848.276714,791.130498 848.549254,794.141107 852.197057,794.184673 854.743123,791.438184 857.879535,794.114506 861.128593,794.118818 861.374922,791.005042 872.362735,792.412257 880.239685,794.283193 886.104190,796.601023"/>
    <poly id="113737399" type="building.yes" color="255,230,230" fill="1" layer="-1.00" shape="975.132749,820.512552 974.684932,789.253482 1036.303640,787.825896 1067.734893,787.099407 1068.316996,819.669627 1025.718792,820.051045 975.132749,820.512552"/>
    <poly id="113737402" type="building.office" color="255,230,230" fill="1" layer="-1.00" shape="1150.742808,784.629066 1147.184955,788.869094 1147.477603,794.764512 1147.633478,812.184757 1151.071476,815.320578 1179.411766,814.936362 1181.479023,812.049638 1182.740436,812.057492 1183.884724,812.008116 1187.860178,811.990175 1188.893915,812.050081 1189.920078,812.010026 1191.695497,814.654930 1220.358617,814.530860 1223.338834,811.890841 1223.244970,804.245520 1222.338117,802.989342 1223.500906,801.708791 1223.393911,797.957340 1222.416134,796.589154 1223.276250,794.915758 1223.429265,788.960467 1220.895340,784.850817 1208.230559,784.516304 1208.291485,773.212220 1208.269797,770.427248 1208.241034,767.509038 1208.321473,753.697957 1221.306712,753.848681 1224.077770,750.029533 1224.098103,743.240183 1223.187076,742.261297 1224.145250,741.310499 1224.223914,736.075214 1223.667931,735.024004 1224.345985,733.991336 1224.286246,726.490753 1221.374684,723.351721 1190.298140,723.406263 1188.879190,725.426282 1187.709169,725.375424 1186.537982,725.402208 1185.838966,725.413896 1184.704574,725.407950 1183.396780,725.465964 1182.354625,725.361556 1181.427265,725.469663 1180.402258,725.432078 1178.457490,723.184025 1158.354347,723.192722 1154.395309,726.949672 1154.185508,751.797542 1155.584271,753.538151 1157.817252,753.516215 1160.273746,753.719522 1160.272047,767.731479 1160.143495,770.247933 1160.075627,772.953900 1159.914284,784.300851 1155.313897,784.231759 1150.742808,784.629066"/>
    <poly id="113737408" type="building.yes" color="255,230,230" fill="1" layer="-1.00" shape="1121.856479,1048.636822 1120.943054,1005.511010 1239.670208,1003.056572 1240.573989,1046.182276 1121.856479,1048.636822"/>
    <poly id="113737409" type="building.yes" color="255,230,230" fill="1" layer="-1.00" shape="1121.775868,997.191765 1120.864303,960.589379 1236.766431,957.737442 1237.677524,994.339854 1121.775868,997.191765"/>
    <poly id="139931589" type="landuse.retail" color="194,194,130" fill="1" layer="-3.00" shape="621.458006,1123.411299 622.134475,1078.800616 651.685360,1078.721329 651.912594,1112.661839 631.736795,1112.737157 630.927963,1123.730486 621.458006,1123.411299"/>
    <poly id="139931592" type="landuse.residential" color="235,235,227" fill="1" layer="-3.00" shape="510.892654,960.670441 656.639247,958.723113 663.112617,973.719468 662.334998,1012.947957 662.184769,1057.555422 509.933710,1058.218283 510.469935,1015.058861 510.892654,960.670441"/>
    <poly id="139932873" type="landuse.industrial" color="209,209,204" fill="1" layer="-3.00" shape="509.227153,1082.415213 470.730199,1082.949271 470.497550,1125.846967 510.563848,1125.347470 509.227153,1082.415213"/>
    <poly id="139936348" type="landuse.commercial" color="209,209,204" fill="1" layer="-3.00" shape="549.467571,1175.287097 549.569417,1130.845336 603.742706,1130.091245 603.405069,1173.897122 549.467571,1175.287097"/>
    <poly id="139936357" type="landuse.commercial" color="209,209,204" fill="1" layer="-3.00" shape="648.920438,1239.235006 585.352318,1240.158908 585.850868,1194.691309 646.164149,1193.574467 649.322602,1195.984791 649.047356,1225.901693 648.920438,1239.235006"/>
    <poly id="139936358" type="landuse.commercial" color="209,209,204" fill="1" layer="-3.00" shape="408.429563,1132.619016 453.747680,1131.698475 452.739845,1083.745492 470.730199,1082.949271 470.497550,1125.846967 470.669392,1131.352246 508.761318,1130.579165 507.916189,1240.543119 404.725805,1242.052082 408.429563,1132.619016"/>
    <poly id="139936358#1" type="shop.car_repair" color="237,199,255" fill="1" layer="-1.00" shape="408.429563,1132.619016 453.747680,1131.698475 452.739845,1083.745492 470.730199,1082.949271 470.497550,1125.846967 470.669392,1131.352246 508.761318,1130.579165 507.916189,1240.543119 404.725805,1242.052082 408.429563,1132.619016"/>
    <poly id="139936365" type="landuse.commercial" color="209,209,204" fill="1" layer="-3.00" shape="572.953711,1240.883193 572.992827,1194.576662 556.483667,1194.651507 543.192879,1194.952010 529.598363,1195.536440 524.947217,1197.663552 524.629468,1240.770783 572.953711,1240.883193"/>
    <poly id="139936365#1" type="tourism.hotel" color="207,245,201" fill="1" layer="-2.00" shape="572.953711,1240.883193 572.992827,1194.576662 556.483667,1194.651507 543.192879,1194.952010 529.598363,1195.536440 524.947217,1197.663552 524.629468,1240.770783 572.953711,1240.883193"/>
    <poly id="139939903" type="landuse.commercial" color="209,209,204" fill="1" layer="-3.00" shape="664.372934,1288.535846 664.535685,1244.915934 683.186550,1244.840066 681.033130,1289.273343 664.372934,1288.535846"/>
    <poly id="139939905" type="amenity.nursing_home" color="237,199,199" fill="1" layer="-1.00" shape="324.577738,1316.506421 324.126550,1358.280332 431.055292,1357.325591 431.156478,1407.650291 508.783536,1406.536118 507.982136,1247.666568 455.924197,1247.809351 455.515912,1290.316135 455.256556,1314.353342 324.577738,1316.506421"/>
    <poly id="139939905#1" type="landuse.commercial" color="209,209,204" fill="1" layer="-3.00" shape="324.577738,1316.506421 324.126550,1358.280332 431.055292,1357.325591 431.156478,1407.650291 508.783536,1406.536118 507.982136,1247.666568 455.924197,1247.809351 455.515912,1290.316135 455.256556,1314.353342 324.577738,1316.506421"/>
    <poly id="139939906" type="landuse.residential" color="235,235,227" fill="1" layer="-3.00" shape="556.585807,1312.839353 539.860485,1312.212053 540.368527,1356.529814 556.058316,1356.609112 556.585807,1312.839353"/>
    <poly id="140026884" type="amenity.school" color="237,199,199" fill="1" layer="-1.00" shape="787.637691,1404.540764 788.502374,1309.864751 665.259508,1311.159071 664.531176,1404.694377 787.637691,1404.540764"/>
    <poly id="140026885" type="amenity.parking" color="184,184,179" fill="1" layer="-1.00" shape="547.521550,1585.199176 547.384554,1628.342422 547.370586,1631.703752 537.573550,1631.446304 529.064694,1631.219222 529.219494,1585.058626 537.649225,1585.118111 547.521550,1585.199176"/>
    <poly id="140026885#1" type="landuse.commercial" color="209,209,204" fill="1" layer="-3.00" shape="547.521550,1585.199176 547.384554,1628.342422 547.370586,1631.703752 537.573550,1631.446304 529.064694,1631.219222 529.219494,1585.058626 537.649225,1585.118111 547.521550,1585.199176"/>
    <poly id="140026893" type="landuse.commercial" color="209,209,204" fill="1" layer="-3.00" shape="727.648049,1588.371744 756.632027,1589.072076 756.362325,1634.343463 727.402723,1633.843186 727.648049,1588.371744"/>
    <poly id="140026893#1" type="tourism.hotel" color="207,245,201" fill="1" layer="-2.00" shape="727.648049,1588.371744 756.632027,1589.072076 756.362325,1634.343463 727.402723,1633.843186 727.648049,1588.371744"/>
    <poly id="140026899" type="amenity.social_facility" color="237,199,199" fill="1" layer="-1.00" shape="473.709380,1578.293397 509.721616,1578.709681 510.025141,1534.126691 474.985356,1533.602912 473.709380,1578.293397"/>
    <poly id="140026917" type="landuse.residential" color="235,235,227" fill="1" layer="-3.00" shape="720.620973,1474.029586 758.336797,1474.039685 757.787976,1517.953392 719.180423,1517.508355 720.620973,1474.029586"/>
    <poly id="140032740" type="amenity.social_facility" color="237,199,199" fill="1" layer="-1.00" shape="736.380549,1793.024080 776.599533,1793.648704 785.656437,1778.485484 785.808394,1761.680042 730.940381,1761.202098 736.380549,1793.024080"/>
    <poly id="140032742" type="amenity.restaurant" color="237,199,199" fill="1" layer="-1.00" shape="776.476238,1801.878755 776.599533,1793.648704 736.380549,1793.024080 736.625285,1801.525903 776.476238,1801.878755"/>
    <poly id="140032742#1" type="landuse.commercial" color="209,209,204" fill="1" layer="-3.00" shape="776.476238,1801.878755 776.599533,1793.648704 736.380549,1793.024080 736.625285,1801.525903 776.476238,1801.878755"/>
    <poly id="140038124" type="landuse.commercial" color="209,209,204" fill="1" layer="-3.00" shape="786.647354,1516.688272 772.492963,1518.328969 772.529576,1473.475675 788.302163,1473.467875 788.756640,1514.611973 786.647354,1516.688272"/>
    <poly id="140046250" type="landuse.commercial" color="209,209,204" fill="1" layer="-3.00" shape="702.394705,1244.517413 683.186550,1244.840066 681.033130,1289.273343 702.385458,1288.783094 702.394705,1244.517413"/>
    <poly id="140046251" type="landuse.commercial" color="209,209,204" fill="1" layer="-3.00" shape="788.353865,1242.232314 787.477086,1286.828937 719.797854,1288.378128 719.808018,1244.056987 788.353865,1242.232314"/>
    <poly id="140046255" type="leisure.park" color="207,245,201" fill="1" layer="-2.00" shape="405.932995,1015.405097 407.425344,975.643696 411.974736,974.258310 422.410950,974.303254 422.146170,956.182520 510.917008,954.790892 510.892654,960.670441 509.933710,1058.218283 510.028649,1061.581237 411.579663,1062.684037 409.748153,1062.567927 408.655569,1062.196594 407.175643,1061.630875 406.209462,1060.695628 405.766724,1059.956800 405.654771,1058.945558 405.386620,1057.454934 405.257260,1055.178697 405.932995,1015.405097"/>
    <poly id="140046256" type="leisure.park" color="207,245,201" fill="1" layer="-2.00" shape="458.728868,1515.598170 408.310813,1514.811569 405.276832,1514.400138 403.374031,1513.595122 401.900020,1512.031012 400.504888,1510.046502 399.645267,1507.448718 399.492344,1504.928056 400.028296,1472.086202 400.446388,1430.123177 400.627423,1426.509180 401.134804,1424.741690 401.863049,1423.376891 403.376548,1421.690995 404.345623,1420.607148 405.381982,1419.879319 407.734102,1419.160051 417.181330,1419.156955 505.422008,1417.713179 507.831966,1417.982183 509.964093,1418.624237 510.477564,1419.486165 511.106616,1421.115320 512.546682,1428.592139 515.407192,1445.464779 515.775302,1448.765255 515.850588,1452.227765 515.563071,1464.782082 515.494870,1478.449097 515.359672,1505.095305 515.280668,1509.165689 514.700517,1510.943179 513.805798,1512.516271 512.870854,1513.744842 511.587986,1515.179001 509.576674,1516.169597 506.903082,1516.540112 458.728868,1515.598170"/>
    <poly id="140046263" type="landuse.residential" color="235,235,227" fill="1" layer="-3.00" shape="549.571276,1469.373242 526.370874,1469.070706 526.238000,1488.882932 548.914106,1489.044499 549.571276,1469.373242"/>
    <poly id="140050205" type="landuse.residential" color="235,235,227" fill="1" layer="-3.00" shape="704.047511,1517.226306 704.439953,1465.555425 530.072062,1464.311169 529.750894,1420.240270 786.955668,1420.384155 786.583698,1467.628772 772.553189,1467.052488 772.529576,1473.475675 772.492963,1518.328969 757.787976,1517.953392 758.336797,1474.039685 757.792683,1466.742649 720.878534,1465.313405 720.620973,1474.029586 719.180423,1517.508355 704.047511,1517.226306"/>
    <poly id="140050964" type="amenity.hospital" color="237,199,199" fill="1" layer="-1.00" shape="430.968473,1798.617517 422.250736,1796.590150 415.480561,1793.582319 411.513887,1790.006199 407.209614,1785.337807 404.770792,1779.110817 407.584619,1703.745699 351.150199,1706.053522 351.998240,1660.202854 351.349582,1641.654797 335.105667,1642.255400 334.687843,1596.696475 400.406345,1596.834789 400.267772,1581.811200 419.605752,1582.466201 419.685625,1577.120000 420.601893,1532.191167 474.985356,1533.602912 473.709380,1578.293397 473.665314,1583.063237 510.013844,1584.050353 508.230310,1649.324065 547.359675,1650.031188 547.370586,1631.703752 547.384554,1628.342422 547.521550,1585.199176 547.801485,1579.223595 529.130745,1578.855649 530.362296,1534.120119 718.662066,1537.581087 748.996150,1537.824553 749.092343,1583.511900 727.663434,1583.102231 727.648049,1588.371744 727.402723,1633.843186 727.451651,1655.422134 755.251289,1656.415374 756.362325,1634.343463 756.632027,1589.072076 785.112208,1588.267238 785.428443,1654.992500 787.110210,1656.615260 785.808394,1761.680042 730.940381,1761.202098 736.380549,1793.024080 736.625285,1801.525903 430.968473,1798.617517"/>
    <poly id="140063841" type="landuse.residential" color="235,235,227" fill="1" layer="-3.00" shape="563.326322,1469.556759 563.381321,1514.422472 656.063309,1516.319430 656.472718,1470.772807 563.326322,1469.556759"/>
    <poly id="140063842" type="landuse.residential" color="235,235,227" fill="1" layer="-3.00" shape="526.238000,1488.882932 526.102540,1510.081893 529.269668,1514.333944 563.381321,1514.422472 563.326322,1469.556759 549.571276,1469.373242 548.914106,1489.044499 526.238000,1488.882932"/>
    <poly id="140065302" type="landuse.residential" color="235,235,227" fill="1" layer="-3.00" shape="563.179319,1405.962690 524.279266,1406.235261 524.611344,1313.004721 539.860485,1312.212053 540.377328,1362.010472 563.710341,1361.960001 563.179319,1405.962690"/>
    <poly id="140065304" type="landuse.commercial" color="209,209,204" fill="1" layer="-3.00" shape="599.675931,1312.773807 556.585807,1312.839353 556.058316,1356.609112 564.000801,1356.494913 563.710341,1361.960001 563.179319,1405.962690 578.274347,1405.755781 578.566886,1361.927030 578.678547,1356.281760 600.138084,1355.892725 599.675931,1312.773807"/>
    <poly id="140065305" type="landuse.residential" color="235,235,227" fill="1" layer="-3.00" shape="649.164878,1312.049815 647.423348,1405.381352 578.274347,1405.755781 578.566886,1361.927030 600.262975,1361.497158 600.138084,1355.892725 599.675931,1312.773807 649.164878,1312.049815"/>
    <poly id="140065306" type="landuse.residential" color="235,235,227" fill="1" layer="-3.00" shape="585.850868,1194.691309 572.992827,1194.576662 572.953711,1240.883193 572.970142,1247.673078 525.791275,1248.043746 524.909572,1290.022037 649.376677,1288.799567 648.930616,1245.226019 585.075180,1245.945926 585.352318,1240.158908 585.850868,1194.691309"/>
    <poly id="140066527" type="landuse.residential" color="235,235,227" fill="1" layer="-3.00" shape="759.837557,1050.851976 759.963750,1012.124051 787.910859,1011.888056 788.267490,996.561227 788.539619,994.146770 789.684698,991.013171 792.611024,990.746367 794.187857,877.598160 792.246994,876.903438 791.911294,875.078963 792.395850,866.965275 792.198042,855.934689 788.118432,852.001714 778.019445,851.850459 770.575428,853.192315 747.568216,853.213902 747.598110,851.217396 682.825824,852.366770 682.544648,854.781094 678.290929,854.595398 670.012156,863.202626 669.652016,919.411456 670.053449,949.593640 676.377862,966.052208 678.694438,965.898276 678.248220,1052.714684 681.718032,1056.760523 754.635809,1055.799746 759.837557,1050.851976"/>
    <poly id="140066528" type="landuse.residential" color="235,235,227" fill="1" layer="-3.00" shape="511.372169,858.156352 654.534272,856.181381 654.289138,953.839790 656.639247,958.723113 510.892654,960.670441 510.917008,954.790892 511.372169,858.156352"/>
    <poly id="141448606" type="amenity.social_centre" color="237,199,199" fill="1" layer="-1.00" shape="606.238563,837.031442 657.760483,836.482014 661.303584,833.816956 661.645074,793.405969 605.803088,792.725880 606.238563,837.031442"/>
    <poly id="141571379" type="landuse.commercial" color="209,209,204" fill="1" layer="-3.00" shape="762.714314,832.084392 763.303287,792.753230 770.441545,792.438547 777.870329,792.117126 792.668971,791.772963 792.004724,831.879595 777.681800,831.975714 769.403777,832.040343 762.714314,832.084392"/>
    <poly id="141571388" type="landuse.commercial" color="209,209,204" fill="1" layer="-3.00" shape="746.104265,792.784146 745.818890,832.452677 762.714314,832.084392 763.303287,792.753230 746.104265,792.784146"/>
    <poly id="141571393" type="amenity.parking" color="184,184,179" fill="1" layer="-1.00" shape="745.818890,832.452677 746.104265,792.784146 739.804777,792.845146 716.286297,793.058860 715.795788,833.101518 740.889224,832.556374 745.818890,832.452677"/>
    <poly id="141571393#1" type="landuse.commercial" color="209,209,204" fill="1" layer="-3.00" shape="745.818890,832.452677 746.104265,792.784146 739.804777,792.845146 716.286297,793.058860 715.795788,833.101518 740.889224,832.556374 745.818890,832.452677"/>
    <poly id="141571396" type="amenity.parking" color="184,184,179" fill="1" layer="-1.00" shape="716.286297,793.058860 707.908597,793.110962 694.756459,793.202553 686.215433,793.252230 686.039815,833.488197 694.786011,833.674570 708.523121,833.303289 715.795788,833.101518 716.286297,793.058860"/>
    <poly id="141571396#1" type="landuse.commercial" color="209,209,204" fill="1" layer="-3.00" shape="716.286297,793.058860 707.908597,793.110962 694.756459,793.202553 686.215433,793.252230 686.039815,833.488197 694.786011,833.674570 708.523121,833.303289 715.795788,833.101518 716.286297,793.058860"/>
    <poly id="141571407" type="landuse.commercial" color="209,209,204" fill="1" layer="-3.00" shape="661.303584,833.816956 686.039815,833.488197 686.215433,793.252230 661.645074,793.405969 661.303584,833.816956"/>
    <poly id="141597534" type="landuse.civic" color="194,194,130" fill="1" layer="-3.00" shape="412.317058,863.232989 411.974736,974.258310 422.410950,974.303254 422.146170,956.182520 510.917008,954.790892 511.372169,858.156352 416.536236,859.046941 412.317058,863.232989"/>
    <poly id="141694820" type="amenity.courthouse" color="237,199,199" fill="1" layer="-1.00" shape="1120.499707,958.276309 1238.229465,956.405935 1240.961411,1049.993415 1119.957444,1051.204351 1120.499707,958.276309"/>
    <poly id="141860890" type="amenity.parking" color="184,184,179" fill="1" layer="-1.00" shape="1442.711955,875.032095 1442.158441,850.904921 1441.832767,836.965675 1531.673417,835.777705 1546.395974,835.666621 1549.395026,836.000244 1551.851044,836.836023 1554.752726,838.211039 1556.910699,839.552665 1558.799686,841.278537 1560.519498,843.390159 1561.725116,845.294339 1562.711461,847.295065 1563.475692,849.580895 1564.023310,853.594161 1563.716331,857.705496 1562.810438,861.208721 1561.060861,864.688142 1559.071592,867.209848 1556.296809,870.063644 1551.322306,872.540384 1548.908763,873.103118 1544.283919,873.455037 1478.894091,874.611544 1469.524396,874.847693 1442.711955,875.032095"/>
    <poly id="141860890#1" type="building.yes" color="255,230,230" fill="1" layer="-1.00" shape="1442.711955,875.032095 1442.158441,850.904921 1441.832767,836.965675 1531.673417,835.777705 1546.395974,835.666621 1549.395026,836.000244 1551.851044,836.836023 1554.752726,838.211039 1556.910699,839.552665 1558.799686,841.278537 1560.519498,843.390159 1561.725116,845.294339 1562.711461,847.295065 1563.475692,849.580895 1564.023310,853.594161 1563.716331,857.705496 1562.810438,861.208721 1561.060861,864.688142 1559.071592,867.209848 1556.296809,870.063644 1551.322306,872.540384 1548.908763,873.103118 1544.283919,873.455037 1478.894091,874.611544 1469.524396,874.847693 1442.711955,875.032095"/>
    <poly id="141860897" type="amenity.bank" color="237,199,199" fill="1" layer="-1.00" shape="1443.123721,929.078260 1442.930376,903.935837 1442.512000,885.302337 1442.711955,875.032095 1469.524396,874.847693 1478.894091,874.611544 1544.283919,873.455037 1554.219916,873.582512 1492.667498,928.492784 1443.123721,929.078260"/>
    <poly id="141860897#1" type="landuse.commercial" color="209,209,204" fill="1" layer="-3.00" shape="1443.123721,929.078260 1442.930376,903.935837 1442.512000,885.302337 1442.711955,875.032095 1469.524396,874.847693 1478.894091,874.611544 1544.283919,873.455037 1554.219916,873.582512 1492.667498,928.492784 1443.123721,929.078260"/>
    <poly id="141863884" type="amenity.parking" color="184,184,179" fill="1" layer="-1.00" shape="1046.711811,879.265168 1046.330662,887.125238 1046.401010,889.089967 1046.582532,903.603908 1046.877712,928.082149 1046.969968,935.239295 1027.874815,935.241203 1013.090449,935.252355 976.951114,935.264931 976.816285,922.471296 976.665664,889.552549 976.372294,880.672790 1046.711811,879.265168"/>
    <poly id="141863884#1" type="building.yes" color="255,230,230" fill="1" layer="-1.00" shape="1046.711811,879.265168 1046.330662,887.125238 1046.401010,889.089967 1046.582532,903.603908 1046.877712,928.082149 1046.969968,935.239295 1027.874815,935.241203 1013.090449,935.252355 976.951114,935.264931 976.816285,922.471296 976.665664,889.552549 976.372294,880.672790 1046.711811,879.265168"/>
    <poly id="141863885" type="landuse.commercial" color="209,209,204" fill="1" layer="-3.00" shape="1031.123966,1001.766421 1016.636639,1001.948433 1008.421611,1002.058157 1007.594032,959.222121 1016.301901,958.931188 1030.993742,958.430509 1031.063613,982.805522 1031.123966,1001.766421"/>
    <poly id="141863886" type="amenity.social_centre" color="237,199,199" fill="1" layer="-1.00" shape="820.818374,822.304256 821.039814,791.166186 947.641477,789.702172 948.182177,819.010050 945.959065,820.796162 886.577978,821.303796 820.818374,822.304256"/>
    <poly id="141863886#1" type="tourism.museum" color="207,245,201" fill="1" layer="-2.00" shape="820.818374,822.304256 821.039814,791.166186 947.641477,789.702172 948.182177,819.010050 945.959065,820.796162 886.577978,821.303796 820.818374,822.304256"/>
    <poly id="141863887" type="amenity.restaurant" color="237,199,199" fill="1" layer="-1.00" shape="978.097096,1002.867986 993.015199,1002.403925 992.567804,959.629069 990.943138,959.637980 976.983011,959.761402 977.769402,990.226777 978.097096,1002.867986"/>
    <poly id="141863887#1" type="landuse.commercial" color="209,209,204" fill="1" layer="-3.00" shape="978.097096,1002.867986 993.015199,1002.403925 992.567804,959.629069 990.943138,959.637980 976.983011,959.761402 977.769402,990.226777 978.097096,1002.867986"/>
    <poly id="141863888" type="landuse.commercial" color="209,209,204" fill="1" layer="-3.00" shape="1284.108735,997.323180 1282.916762,955.269272 1412.827149,952.130971 1413.459169,999.390782 1370.490383,999.720571 1369.204065,995.940279 1284.108735,997.323180"/>
    <poly id="141863891" type="landuse.commercial" color="209,209,204" fill="1" layer="-3.00" shape="1117.470006,933.390887 1116.199490,888.051976 1171.165020,887.235484 1172.234473,932.649054 1117.470006,933.390887"/>
    <poly id="141863892" type="amenity.bank" color="237,199,199" fill="1" layer="-1.00" shape="890.271383,936.372662 889.736327,893.962631 928.956761,893.663068 958.383435,893.438677 958.720211,935.734811 912.482584,936.162010 901.154597,936.269542 890.271383,936.372662"/>
    <poly id="141863892#1" type="landuse.commercial" color="209,209,204" fill="1" layer="-3.00" shape="890.271383,936.372662 889.736327,893.962631 928.956761,893.663068 958.383435,893.438677 958.720211,935.734811 912.482584,936.162010 901.154597,936.269542 890.271383,936.372662"/>
    <poly id="141863896" type="amenity.parking" color="184,184,179" fill="1" layer="-1.00" shape="884.098868,960.665180 914.632122,960.468337 916.819514,960.456755 918.898024,960.443541 928.882097,960.382447 929.365852,1009.226358 907.463662,1009.419405 893.113293,1009.548198 883.664447,1009.628446 883.720924,1003.438732 884.098868,960.665180"/>
    <poly id="141863896#1" type="landuse.commercial" color="209,209,204" fill="1" layer="-3.00" shape="884.098868,960.665180 914.632122,960.468337 916.819514,960.456755 918.898024,960.443541 928.882097,960.382447 929.365852,1009.226358 907.463662,1009.419405 893.113293,1009.548198 883.664447,1009.628446 883.720924,1003.438732 884.098868,960.665180"/>
    <poly id="141863899" type="landuse.commercial" color="209,209,204" fill="1" layer="-3.00" shape="890.271383,936.372662 815.430237,937.824992 815.344485,894.478706 889.736327,893.962631 890.271383,936.372662"/>
    <poly id="141863899#1" type="shop.car_repair" color="237,199,255" fill="1" layer="-1.00" shape="890.271383,936.372662 815.430237,937.824992 815.344485,894.478706 889.736327,893.962631 890.271383,936.372662"/>
    <poly id="141863900" type="building.yes" color="255,230,230" fill="1" layer="-1.00" shape="1257.701093,997.170284 1257.706279,955.766750 1282.916762,955.269272 1284.108735,997.323180 1257.701093,997.170284"/>
    <poly id="141863902" type="landuse.commercial" color="209,209,204" fill="1" layer="-3.00" shape="992.567804,959.629069 1007.594032,959.222121 1008.421611,1002.058157 993.015199,1002.403925 992.567804,959.629069"/>
    <poly id="141957315" type="building.yes" color="255,230,230" fill="1" layer="-1.00" shape="1097.593067,787.780565 1068.037742,788.690423 1068.557655,818.752420 1098.015983,818.251597 1097.593067,787.780565"/>
    <poly id="141957316" type="landuse.commercial" color="209,209,204" fill="1" layer="-3.00" shape="1068.409129,869.162249 1068.073557,858.262705 1067.585555,842.401764 1070.307826,842.431529 1098.628951,842.712426 1099.201976,857.742581 1099.632991,868.932010 1068.409129,869.162249"/>
    <poly id="141957318" type="amenity.courthouse" color="237,199,199" fill="1" layer="-1.00" shape="1100.121165,818.882288 1100.238380,815.910801 1100.078520,788.472435 1096.779864,773.634342 1096.617313,752.419786 1096.337214,732.989632 1096.408640,731.859096 1096.802227,731.032939 1098.850992,729.377376 1099.421811,728.232147 1099.432884,726.889915 1099.042796,725.064610 1097.980248,723.295775 1096.426049,721.630502 1094.460280,720.780023 1093.184537,720.516800 1092.392452,720.682417 1091.665631,721.337159 1090.724120,722.388069 1089.851786,723.062815 1088.343370,723.184397 1044.337598,723.588996 995.170434,724.415625 993.228641,724.386498 992.071687,724.069601 991.401966,723.338432 990.635429,722.406116 989.770000,722.015932 981.663769,722.116230 979.994945,722.645910 978.382985,723.620210 977.255852,724.945703 976.306627,727.117023 976.109861,729.344005 973.247172,759.854486 972.278851,772.376405 972.166170,775.048417 972.073043,790.334823 972.245715,798.791190 972.975780,819.703607 973.231854,820.783585 973.538787,821.498217 974.188524,822.351121 975.079001,822.885904 977.064401,823.636805 979.373702,823.970985 999.517311,824.273140 1080.905803,822.643224 1094.422040,822.480008 1096.614297,822.146809 1098.067839,821.447507 1099.501487,820.259761 1100.121165,818.882288"/>
    <poly id="141957318#1" type="leisure.park" color="207,245,201" fill="1" layer="-2.00" shape="1100.121165,818.882288 1100.238380,815.910801 1100.078520,788.472435 1096.779864,773.634342 1096.617313,752.419786 1096.337214,732.989632 1096.408640,731.859096 1096.802227,731.032939 1098.850992,729.377376 1099.421811,728.232147 1099.432884,726.889915 1099.042796,725.064610 1097.980248,723.295775 1096.426049,721.630502 1094.460280,720.780023 1093.184537,720.516800 1092.392452,720.682417 1091.665631,721.337159 1090.724120,722.388069 1089.851786,723.062815 1088.343370,723.184397 1044.337598,723.588996 995.170434,724.415625 993.228641,724.386498 992.071687,724.069601 991.401966,723.338432 990.635429,722.406116 989.770000,722.015932 981.663769,722.116230 979.994945,722.645910 978.382985,723.620210 977.255852,724.945703 976.306627,727.117023 976.109861,729.344005 973.247172,759.854486 972.278851,772.376405 972.166170,775.048417 972.073043,790.334823 972.245715,798.791190 972.975780,819.703607 973.231854,820.783585 973.538787,821.498217 974.188524,822.351121 975.079001,822.885904 977.064401,823.636805 979.373702,823.970985 999.517311,824.273140 1080.905803,822.643224 1094.422040,822.480008 1096.614297,822.146809 1098.067839,821.447507 1099.501487,820.259761 1100.121165,818.882288"/>
    <poly id="142223192" type="landuse.commercial" color="209,209,204" fill="1" layer="-3.00" shape="960.814541,1009.098877 929.365852,1009.226358 928.882097,960.382447 933.521512,960.263410 961.503352,959.540325 960.814541,1009.098877"/>
    <poly id="142223193" type="landuse.commercial" color="209,209,204" fill="1" layer="-3.00" shape="1100.908787,933.874455 1046.969968,935.239295 1046.877712,928.082149 1046.582532,903.603908 1046.401010,889.089967 1100.206248,888.177968 1100.908787,933.874455"/>