<?xml version="1.0" encoding="UTF-8"?>

<!-- generated on Fri Sep 20 10:06:08 2019 by Eclipse SUMO duarouter Version 1.2.0
<configuration xmlns:xsi="http://www.w3.org/2001/XMLSchema-instance" xsi:noNamespaceSchemaLocation="http://sumo.dlr.de/xsd/duarouterConfiguration.xsd">

    <input>
        <net-file value="/home/werer/sumo/tools/2019-09-20-10-06-02/osm.net.xml"/>
        <route-files value="/home/werer/sumo/tools/2019-09-20-10-06-02/osm.passenger.trips.xml"/>
    </input>

    <output>
        <output-file value="/home/werer/sumo/tools/2019-09-20-10-06-02/osm.passenger.trips.xml.tmp"/>
        <write-trips value="true"/>
    </output>

    <time>
        <begin value="0"/>
        <end value="3600.0"/>
    </time>

    <report>
        <no-warnings value="true"/>
        <ignore-errors value="true"/>
        <no-step-log value="true"/>
    </report>

</configuration>
-->

<routes xmlns:xsi="http://www.w3.org/2001/XMLSchema-instance" xsi:noNamespaceSchemaLocation="http://sumo.dlr.de/xsd/routes_file.xsd">
    <vType id="veh_passenger" vClass="passenger"/>
    <trip id="veh0" type="veh_passenger" depart="0.00" departLane="best" departSpeed="max" from="522765237#0" to="-14922678#0"/>
    <trip id="veh1" type="veh_passenger" depart="0.16" departLane="best" departSpeed="max" from="-527640919#1" to="-542140911#2"/>
    <trip id="veh2" type="veh_passenger" depart="0.32" departLane="best" departSpeed="max" from="542140911#0" to="-522765237#1"/>
    <trip id="veh3" type="veh_passenger" depart="0.47" departLane="best" departSpeed="max" from="-543227057" to="-14922678#0"/>
    <trip id="veh4" type="veh_passenger" depart="0.63" departLane="best" departSpeed="max" from="-160811510#1" to="14927985#11"/>
    <trip id="veh5" type="veh_passenger" depart="0.79" departLane="best" departSpeed="max" from="-137163565#3" to="-541418934#0"/>
    <trip id="veh6" type="veh_passenger" depart="0.95" departLane="best" departSpeed="max" from="522765237#0" to="160811510#0"/>
    <trip id="veh7" type="veh_passenger" depart="1.10" departLane="best" departSpeed="max" from="-160811510#1" to="277481379#5"/>
    <trip id="veh8" type="veh_passenger" depart="1.26" departLane="best" departSpeed="max" from="531157852#0" to="-14915776#0"/>
    <trip id="veh9" type="veh_passenger" depart="1.42" departLane="best" departSpeed="max" from="531157852#0" to="515071382"/>
    <trip id="veh10" type="veh_passenger" depart="1.58" departLane="best" departSpeed="max" from="542510043#0" to="137171472#3"/>
    <trip id="veh11" type="veh_passenger" depart="1.73" departLane="best" departSpeed="max" from="-140066798#5" to="-523064162#0"/>
    <trip id="veh12" type="veh_passenger" depart="1.89" departLane="best" departSpeed="max" from="541418934#0" to="277481379#5"/>
    <trip id="veh13" type="veh_passenger" depart="2.05" departLane="best" departSpeed="max" from="14922678#0" to="97190361#0"/>
    <trip id="veh14" type="veh_passenger" depart="2.21" departLane="best" departSpeed="max" from="-530900115" to="160811510#0"/>
    <trip id="veh15" type="veh_passenger" depart="2.36" departLane="best" departSpeed="max" from="541418923" to="426381467#0"/>
    <trip id="veh16" type="veh_passenger" depart="2.52" departLane="best" departSpeed="max" from="542131422" to="27320272#8"/>
    <trip id="veh17" type="veh_passenger" depart="2.68" departLane="best" departSpeed="max" from="523064202" to="-27362017#1"/>
    <trip id="veh18" type="veh_passenger" depart="2.84" departLane="best" departSpeed="max" from="-27320272#8" to="137152453#2"/>
    <trip id="veh19" type="veh_passenger" depart="2.99" departLane="best" departSpeed="max" from="-137171472#3" to="-542140911#2"/>
    <trip id="veh20" type="veh_passenger" depart="3.15" departLane="best" departSpeed="max" from="522765237#0" to="140066798#5"/>
    <trip id="veh21" type="veh_passenger" depart="3.31" departLane="best" departSpeed="max" from="-530900115" to="-541418934#0"/>
    <trip id="veh22" type="veh_passenger" depart="3.47" departLane="best" departSpeed="max" from="-277481379#5" to="543227057"/>
    <trip id="veh23" type="veh_passenger" depart="3.62" departLane="best" departSpeed="max" from="522765237#0" to="426381467#0"/>
    <trip id="veh24" type="veh_passenger" depart="3.78" departLane="best" departSpeed="max" from="-14915133#13" to="140642345#3"/>
    <trip id="veh25" type="veh_passenger" depart="3.94" departLane="best" departSpeed="max" from="426381445#0" to="515071382"/>
    <trip id="veh26" type="veh_passenger" depart="4.10" departLane="best" departSpeed="max" from="541418934#0" to="529598126#0"/>
    <trip id="veh27" type="veh_passenger" depart="4.25" departLane="best" departSpeed="max" from="-27320272#8" to="-14922678#0"/>
    <trip id="veh28" type="veh_passenger" depart="4.41" departLane="best" departSpeed="max" from="-529598126#1" to="137152442"/>
    <trip id="veh29" type="veh_passenger" depart="4.57" departLane="best" departSpeed="max" from="-160811510#1" to="543227057"/>
    <trip id="veh30" type="veh_passenger" depart="4.73" departLane="best" departSpeed="max" from="542131422" to="137163565#3"/>
    <trip id="veh31" type="veh_passenger" depart="4.88" departLane="best" departSpeed="max" from="522765237#0" to="140642346"/>
    <trip id="veh32" type="veh_passenger" depart="5.04" departLane="best" departSpeed="max" from="542342449" to="14915133#13"/>
    <trip id="veh33" type="veh_passenger" depart="5.20" departLane="best" departSpeed="max" from="-277481379#5" to="-542510043#0"/>
    <trip id="veh34" type="veh_passenger" depart="5.36" departLane="best" departSpeed="max" from="426381445#0" to="137152442"/>
    <trip id="veh35" type="veh_passenger" depart="5.51" departLane="best" departSpeed="max" from="-530900115" to="-542140911#2"/>
    <trip id="veh36" type="veh_passenger" depart="5.67" departLane="best" departSpeed="max" from="542526970#0" to="14927985#11"/>
    <trip id="veh37" type="veh_passenger" depart="5.83" departLane="best" departSpeed="max" from="-140066798#5" to="-522765226#0"/>
    <trip id="veh38" type="veh_passenger" depart="5.99" departLane="best" departSpeed="max" from="-141436132#2" to="426381467#0"/>
    <trip id="veh39" type="veh_passenger" depart="6.14" departLane="best" departSpeed="max" from="531157852#0" to="141436132#0"/>
    <trip id="veh40" type="veh_passenger" depart="6.30" departLane="best" departSpeed="max" from="-137171472#3" to="140642346"/>
    <trip id="veh41" type="veh_passenger" depart="6.46" departLane="best" departSpeed="max" from="542526970#0" to="14930352#1"/>
    <trip id="veh42" type="veh_passenger" depart="6.62" departLane="best" departSpeed="max" from="-137152453#3" to="527640919#0"/>
    <trip id="veh43" type="veh_passenger" depart="6.77" departLane="best" departSpeed="max" from="523064162#0" to="14930352#1"/>
    <trip id="veh44" type="veh_passenger" depart="6.93" departLane="best" departSpeed="max" from="-277481379#5" to="426381467#0"/>
    <trip id="veh45" type="veh_passenger" depart="7.09" departLane="best" departSpeed="max" from="137152429#0" to="543227057"/>
    <trip id="veh46" type="veh_passenger" depart="7.25" departLane="best" departSpeed="max" from="542131422" to="137152442"/>
    <trip id="veh47" type="veh_passenger" depart="7.40" departLane="best" departSpeed="max" from="140642348" to="-541418923"/>
    <trip id="veh48" type="veh_passenger" depart="7.56" departLane="best" departSpeed="max" from="-527640919#1" to="426381467#0"/>
    <trip id="veh49" type="veh_passenger" depart="7.72" departLane="best" departSpeed="max" from="426381445#0" to="-531157852#1"/>
    <trip id="veh50" type="veh_passenger" depart="7.88" departLane="best" departSpeed="max" from="527640932" to="14930352#1"/>
    <trip id="veh51" type="veh_passenger" depart="8.03" departLane="best" departSpeed="max" from="531157852#0" to="14930352#1"/>
    <trip id="veh52" type="veh_passenger" depart="8.19" departLane="best" from="-137128700#9" to="137171472#3"/>
    <trip id="veh53" type="veh_passenger" depart="8.35" departLane="best" departSpeed="max" from="-137152453#3" to="543227057"/>
    <trip id="veh54" type="veh_passenger" depart="8.51" departLane="best" departSpeed="max" from="542140911#0" to="530900115"/>
    <trip id="veh55" type="veh_passenger" depart="8.66" departLane="best" departSpeed="max" from="-527640919#1" to="-522765237#1"/>
    <trip id="veh56" type="veh_passenger" depart="8.82" departLane="best" departSpeed="max" from="542140911#0" to="543227057"/>
    <trip id="veh57" type="veh_passenger" depart="8.98" departLane="best" departSpeed="max" from="-140066798#5" to="14925871"/>
    <trip id="veh58" type="veh_passenger" depart="9.14" departLane="best" departSpeed="max" from="-137171472#3" to="527640938"/>
    <trip id="veh59" type="veh_passenger" depart="9.29" departLane="best" departSpeed="max" from="527640932" to="-523064202"/>
    <trip id="veh60" type="veh_passenger" depart="9.45" departLane="best" departSpeed="max" from="137152430#0" to="160811510#0"/>
    <trip id="veh61" type="veh_passenger" depart="9.61" departLane="best" departSpeed="max" from="-277481379#5" to="542131418"/>
    <trip id="veh62" type="veh_passenger" depart="9.77" departLane="best" departSpeed="max" from="-543227057" to="-541418934#0"/>
    <trip id="veh63" type="veh_passenger" depart="9.92" departLane="best" departSpeed="max" from="14922678#0" to="527640919#0"/>
    <trip id="veh64" type="veh_passenger" depart="10.08" departLane="best" departSpeed="max" from="-14930352#1" to="137163565#3"/>
    <trip id="veh65" type="veh_passenger" depart="10.24" departLane="best" departSpeed="max" from="-529598126#1" to="277481379#5"/>
    <trip id="veh66" type="veh_passenger" depart="10.40" departLane="best" departSpeed="max" from="-27320272#8" to="-542140911#2"/>
    <trip id="veh67" type="veh_passenger" depart="10.55" departLane="best" departSpeed="max" from="-137171472#3" to="426381467#0"/>
    <trip id="veh68" type="veh_passenger" depart="10.71" departLane="best" departSpeed="max" from="-27320272#8" to="542526973#0"/>
    <trip id="veh69" type="veh_passenger" depart="10.87" departLane="best" departSpeed="max" from="542131422" to="-522765237#1"/>
    <trip id="veh70" type="veh_passenger" depart="11.03" departLane="best" departSpeed="max" from="-27320272#8" to="426381467#0"/>
    <trip id="veh71" type="veh_passenger" depart="11.19" departLane="best" departSpeed="max" from="-160811510#1" to="-530900250"/>
    <trip id="veh72" type="veh_passenger" depart="11.34" departLane="best" departSpeed="max" from="542342449" to="27320272#8"/>
    <trip id="veh73" type="veh_passenger" depart="11.50" departLane="best" departSpeed="max" from="137152430#0" to="529598126#0"/>
    <trip id="veh74" type="veh_passenger" depart="11.66" departLane="best" departSpeed="max" from="531157852#0" to="-541418923"/>
    <trip id="veh75" type="veh_passenger" depart="11.82" departLane="best" departSpeed="max" from="-140066798#5" to="141436132#0"/>
    <trip id="veh76" type="veh_passenger" depart="11.97" departLane="best" departSpeed="max" from="-543227057" to="14925871"/>
    <trip id="veh77" type="veh_passenger" depart="12.13" departLane="best" departSpeed="max" from="523064202" to="515071382"/>
    <trip id="veh78" type="veh_passenger" depart="12.29" departLane="best" departSpeed="max" from="542526970#0" to="-523064162#0"/>
    <trip id="veh79" type="veh_passenger" depart="12.45" departLane="best" departSpeed="max" from="542131422" to="-542510043#0"/>
    <trip id="veh80" type="veh_passenger" depart="12.60" departLane="best" departSpeed="max" from="-14930352#1" to="14915133#13"/>
    <trip id="veh81" type="veh_passenger" depart="12.76" departLane="best" departSpeed="max" from="-543227057" to="137152453#2"/>
    <trip id="veh82" type="veh_passenger" depart="12.92" departLane="best" departSpeed="max" from="-277481379#5" to="543227057"/>
    <trip id="veh83" type="veh_passenger" depart="13.08" departLane="best" departSpeed="max" from="137152429#0" to="542131418"/>
    <trip id="veh84" type="veh_passenger" depart="13.23" departLane="best" departSpeed="max" from="426381445#0" to="-522765237#1"/>
    <trip id="veh85" type="veh_passenger" depart="13.39" departLane="best" departSpeed="max" from="542526970#0" to="530900115"/>
    <trip id="veh86" type="veh_passenger" depart="13.55" departLane="best" departSpeed="max" from="542526970#0" to="543227057"/>
    <trip id="veh87" type="veh_passenger" depart="13.71" departLane="best" departSpeed="max" from="541418934#0" to="-531157852#1"/>
    <trip id="veh88" type="veh_passenger" depart="13.86" departLane="best" departSpeed="max" from="140642348" to="-541418934#0"/>
    <trip id="veh89" type="veh_passenger" depart="14.02" departLane="best" departSpeed="max" from="-530900115" to="-522765237#1"/>
    <trip id="veh90" type="veh_passenger" depart="14.18" departLane="best" departSpeed="max" from="-530900115" to="97190361#0"/>
    <trip id="veh91" type="veh_passenger" depart="14.34" departLane="best" departSpeed="max" from="-277481379#5" to="529598126#0"/>
    <trip id="veh92" type="veh_passenger" depart="14.49" departLane="best" departSpeed="max" from="137152429#0" to="141436132#0"/>
    <trip id="veh93" type="veh_passenger" depart="14.65" departLane="best" departSpeed="max" from="542510043#0" to="97190361#0"/>
    <trip id="veh94" type="veh_passenger" depart="14.81" departLane="best" departSpeed="max" from="426381445#0" to="527640919#0"/>
    <trip id="veh95" type="veh_passenger" depart="14.97" departLane="best" departSpeed="max" from="-14915133#13" to="137152453#2"/>
    <trip id="veh96" type="veh_passenger" depart="15.12" departLane="best" departSpeed="max" from="542526970#0" to="27320272#8"/>
    <trip id="veh97" type="veh_passenger" depart="15.28" departLane="best" departSpeed="max" from="14922678#0" to="527640919#0"/>
    <trip id="veh98" type="veh_passenger" depart="15.44" departLane="best" departSpeed="max" from="-137171472#3" to="27320272#8"/>
    <trip id="veh99" type="veh_passenger" depart="15.60" departLane="best" from="14915759#3" to="530900115"/>
    <trip id="veh100" type="veh_passenger" depart="15.75" departLane="best" departSpeed="max" from="-14915133#13" to="97190361#0"/>
    <trip id="veh101" type="veh_passenger" depart="15.91" departLane="best" departSpeed="max" from="-137171472#3" to="-541418923"/>
    <trip id="veh102" type="veh_passenger" depart="16.07" departLane="best" departSpeed="max" from="426381445#0" to="515071382"/>
    <trip id="veh103" type="veh_passenger" depart="16.23" departLane="best" departSpeed="max" from="-27320272#8" to="-523064202"/>
    <trip id="veh104" type="veh_passenger" depart="16.38" departLane="best" departSpeed="max" from="542140911#0" to="-542510043#0"/>
    <trip id="veh105" type="veh_passenger" depart="16.54" departLane="best" departSpeed="max" from="-543227057" to="27320272#8"/>
    <trip id="veh106" type="veh_passenger" depart="16.70" departLane="best" departSpeed="max" from="14915776#0" to="543227057"/>
    <trip id="veh107" type="veh_passenger" depart="16.86" departLane="best" departSpeed="max" from="-14930352#1" to="527640919#0"/>
    <trip id="veh108" type="veh_passenger" depart="17.01" departLane="best" departSpeed="max" from="-27320272#8" to="140642346"/>
    <trip id="veh109" type="veh_passenger" depart="17.17" departLane="best" departSpeed="max" from="523064162#0" to="137163565#3"/>
    <trip id="veh110" type="veh_passenger" depart="17.33" departLane="best" departSpeed="max" from="-137171472#3" to="14915133#13"/>
    <trip id="veh111" type="veh_passenger" depart="17.49" departLane="best" departSpeed="max" from="-277481379#5" to="543227057"/>
    <trip id="veh112" type="veh_passenger" depart="17.64" departLane="best" departSpeed="max" from="542140911#0" to="542526973#0"/>
    <trip id="veh113" type="veh_passenger" depart="17.80" departLane="best" departSpeed="max" from="-530900115" to="-531157852#1"/>
    <trip id="veh114" type="veh_passenger" depart="17.96" departLane="best" departSpeed="max" from="541418923" to="515071382"/>
    <trip id="veh115" type="veh_passenger" depart="18.12" departLane="best" departSpeed="max" from="522765237#0" to="-14915776#0"/>
    <trip id="veh116" type="veh_passenger" depart="18.27" departLane="best" departSpeed="max" from="541418923" to="137163565#3"/>
    <trip id="veh117" type="veh_passenger" depart="18.43" departLane="best" departSpeed="max" from="522765237#0" to="543227057"/>
    <trip id="veh118" type="veh_passenger" depart="18.59" departLane="best" departSpeed="max" from="-141436132#2" to="-523064202"/>
    <trip id="veh119" type="veh_passenger" depart="18.75" departLane="best" departSpeed="max" from="-527640919#1" to="277481379#5"/>
    <trip id="veh120" type="veh_passenger" depart="18.90" departLane="best" departSpeed="max" from="523064202" to="-541418934#0"/>
    <trip id="veh121" type="veh_passenger" depart="19.06" departLane="best" departSpeed="max" from="522765237#0" to="137152442"/>
    <trip id="veh122" type="veh_passenger" depart="19.22" departLane="best" departSpeed="max" from="140642348" to="542526973#0"/>
    <trip id="veh123" type="veh_passenger" depart="19.38" departLane="best" departSpeed="max" from="-543227057" to="137152442"/>
    <trip id="veh124" type="veh_passenger" depart="19.53" departLane="best" departSpeed="max" from="-137152453#3" to="527640938"/>
    <trip id="veh125" type="veh_passenger" depart="19.69" departLane="best" departSpeed="max" from="522765237#0" to="137152442"/>
    <trip id="veh126" type="veh_passenger" depart="19.85" departLane="best" departSpeed="max" from="527640932" to="160811510#0"/>
    <trip id="veh127" type="veh_passenger" depart="20.01" departLane="best" departSpeed="max" from="-543227057" to="-14915776#0"/>
    <trip id="veh128" type="veh_passenger" depart="20.16" departLane="best" departSpeed="max" from="-137171472#3" to="542526973#0"/>
    <trip id="veh129" type="veh_passenger" depart="20.32" departLane="best" departSpeed="max" from="542342449" to="160811510#0"/>
    <trip id="veh130" type="veh_passenger" depart="20.48" departLane="best" departSpeed="max" from="541418923" to="27320272#8"/>
    <trip id="veh131" type="veh_passenger" depart="20.64" departLane="best" departSpeed="max" from="-14915133#13" to="-523064202"/>
    <trip id="veh132" type="veh_passenger" depart="20.79" departLane="best" departSpeed="max" from="-527640919#1" to="542526973#0"/>
    <trip id="veh133" type="veh_passenger" depart="20.95" departLane="best" departSpeed="max" from="531157852#0" to="542131418"/>
    <trip id="veh134" type="veh_passenger" depart="21.11" departLane="best" departSpeed="max" from="542342449" to="-541418934#0"/>
    <trip id="veh135" type="veh_passenger" depart="21.27" departLane="best" departSpeed="max" from="-277481379#5" to="-523064162#0"/>
    <trip id="veh136" type="veh_passenger" depart="21.42" departLane="best" departSpeed="max" from="531157852#0" to="542526973#0"/>
    <trip id="veh137" type="veh_passenger" depart="21.58" departLane="best" departSpeed="max" from="-530900115" to="426381467#0"/>
    <trip id="veh138" type="veh_passenger" depart="21.74" departLane="best" departSpeed="max" from="-14915133#13" to="543227057"/>
    <trip id="veh139" type="veh_passenger" depart="21.90" departLane="best" departSpeed="max" from="531157852#0" to="542526973#0"/>
    <trip id="veh140" type="veh_passenger" depart="22.06" departLane="best" departSpeed="max" from="-137163565#3" to="527640919#0"/>
    <trip id="veh141" type="veh_passenger" depart="22.21" departLane="best" departSpeed="max" from="-529598126#1" to="543227057"/>
    <trip id="veh142" type="veh_passenger" depart="22.37" departLane="best" departSpeed="max" from="531157852#0" to="542131418"/>
    <trip id="veh143" type="veh_passenger" depart="22.53" departLane="best" departSpeed="max" from="531157852#0" to="137152442"/>
    <trip id="veh144" type="veh_passenger" depart="22.69" departLane="best" departSpeed="max" from="531157852#0" to="-523064162#0"/>
    <trip id="veh145" type="veh_passenger" depart="22.84" departLane="best" departSpeed="max" from="-160811510#1" to="530900115"/>
    <trip id="veh146" type="veh_passenger" depart="23.00" departLane="best" departSpeed="max" from="531157852#0" to="-542140911#2"/>
    <trip id="veh147" type="veh_passenger" depart="23.16" departLane="best" departSpeed="max" from="-137163565#3" to="-541418923"/>
    <trip id="veh148" type="veh_passenger" depart="23.32" departLane="best" departSpeed="max" from="-529598126#1" to="542131418"/>
    <trip id="veh149" type="veh_passenger" depart="23.47" departLane="best" departSpeed="max" from="542526970#0" to="137152453#2"/>
    <trip id="veh150" type="veh_passenger" depart="23.63" departLane="best" departSpeed="max" from="522765237#0" to="140690817#0"/>
    <trip id="veh151" type="veh_passenger" depart="23.79" departLane="best" departSpeed="max" from="542526970#0" to="14930352#1"/>
    <trip id="veh152" type="veh_passenger" depart="23.95" departLane="best" departSpeed="max" from="542510043#0" to="-523064202"/>
    <trip id="veh153" type="veh_passenger" depart="24.10" departLane="best" departSpeed="max" from="542526970#0" to="-541418923"/>
    <trip id="veh154" type="veh_passenger" depart="24.26" departLane="best" departSpeed="max" from="542526970#0" to="137152442"/>
    <trip id="veh155" type="veh_passenger" depart="24.42" departLane="best" departSpeed="max" from="523064202" to="137163565#3"/>
    <trip id="veh156" type="veh_passenger" depart="24.58" departLane="best" departSpeed="max" from="426381445#0" to="14927985#11"/>
    <trip id="veh157" type="veh_passenger" depart="24.73" departLane="best" departSpeed="max" from="-530900115" to="27320272#8"/>
    <trip id="veh158" type="veh_passenger" depart="24.89" departLane="best" departSpeed="max" from="-277481379#5" to="515071382"/>
    <trip id="veh159" type="veh_passenger" depart="25.05" departLane="best" departSpeed="max" from="-137152453#3" to="543227057"/>
    <trip id="veh160" type="veh_passenger" depart="25.21" departLane="best" departSpeed="max" from="14922678#0" to="527640919#0"/>
    <trip id="veh161" type="veh_passenger" depart="25.36" departLane="best" departSpeed="max" from="-530900115" to="-522765237#1"/>
    <trip id="veh162" type="veh_passenger" depart="25.52" departLane="best" departSpeed="max" from="522765237#0" to="137171472#3"/>
    <trip id="veh163" type="veh_passenger" depart="25.68" departLane="best" departSpeed="max" from="-529598126#1" to="530900115"/>
    <trip id="veh164" type="veh_passenger" depart="25.84" departLane="best" departSpeed="max" from="523064202" to="137163565#3"/>
    <trip id="veh165" type="veh_passenger" depart="25.99" departLane="best" departSpeed="max" from="-527640919#1" to="141436132#0"/>
    <trip id="veh166" type="veh_passenger" depart="26.15" departLane="best" departSpeed="max" from="-530900115" to="137152453#2"/>
    <trip id="veh167" type="veh_passenger" depart="26.31" departLane="best" departSpeed="max" from="542510043#0" to="515071382"/>
    <trip id="veh168" type="veh_passenger" depart="26.47" departLane="best" departSpeed="max" from="-527640919#1" to="160811510#0"/>
    <trip id="veh169" type="veh_passenger" depart="26.62" departLane="best" from="-137128700#5" to="137152453#2"/>
    <trip id="veh170" type="veh_passenger" depart="26.78" departLane="best" departSpeed="max" from="-543227057" to="27320272#8"/>
    <trip id="veh171" type="veh_passenger" depart="26.94" departLane="best" departSpeed="max" from="522765237#0" to="14925871"/>
    <trip id="veh172" type="veh_passenger" depart="27.10" departLane="best" departSpeed="max" from="137152429#0" to="-541418934#0"/>
    <trip id="veh173" type="veh_passenger" depart="27.25" departLane="best" departSpeed="max" from="137152430#0" to="542526973#0"/>
    <trip id="veh174" type="veh_passenger" depart="27.41" departLane="best" departSpeed="max" from="-140066798#5" to="14927985#11"/>
    <trip id="veh175" type="veh_passenger" depart="27.57" departLane="best" departSpeed="max" from="522765237#0" to="137171472#3"/>
    <trip id="veh176" type="veh_passenger" depart="27.73" departLane="best" departSpeed="max" from="541418923" to="527640919#0"/>
    <trip id="veh177" type="veh_passenger" depart="27.88" departLane="best" departSpeed="max" from="523064162#0" to="-542140911#2"/>
    <trip id="veh178" type="veh_passenger" depart="28.04" departLane="best" departSpeed="max" from="-14930352#1" to="-14922678#0"/>
    <trip id="veh179" type="veh_passenger" depart="28.20" departLane="best" departSpeed="max" from="-27320272#8" to="14925871"/>
    <trip id="veh180" type="veh_passenger" depart="28.36" departLane="best" departSpeed="max" from="541418934#0" to="-522765237#1"/>
    <trip id="veh181" type="veh_passenger" depart="28.51" departLane="best" from="-530900180" to="426381467#0"/>
    <trip id="veh182" type="veh_passenger" depart="28.67" departLane="best" departSpeed="max" from="-14930352#1" to="515071382"/>
    <trip id="veh183" type="veh_passenger" depart="28.83" departLane="best" departSpeed="max" from="140642348" to="-542510043#0"/>
    <trip id="veh184" type="veh_passenger" depart="28.99" departLane="best" departSpeed="max" from="522765237#0" to="-14915776#0"/>
    <trip id="veh185" type="veh_passenger" depart="29.14" departLane="best" departSpeed="max" from="-14927985#11" to="543227057"/>
    <trip id="veh186" type="veh_passenger" depart="29.30" departLane="best" departSpeed="max" from="14915776#0" to="-522765237#1"/>
    <trip id="veh187" type="veh_passenger" depart="29.46" departLane="best" departSpeed="max" from="-277481379#5" to="530900115"/>
    <trip id="veh188" type="veh_passenger" depart="29.62" departLane="best" departSpeed="max" from="137152429#0" to="529598126#0"/>
    <trip id="veh189" type="veh_passenger" depart="29.77" departLane="best" departSpeed="max" from="522765237#0" to="97190361#0"/>
    <trip id="veh190" type="veh_passenger" depart="29.93" departLane="best" departSpeed="max" from="426381445#0" to="543227057"/>
    <trip id="veh191" type="veh_passenger" depart="30.09" departLane="best" departSpeed="max" from="542140911#0" to="426381467#0"/>
    <trip id="veh192" type="veh_passenger" depart="30.25" departLane="best" departSpeed="max" from="523064202" to="14927985#11"/>
    <trip id="veh193" type="veh_passenger" depart="30.40" departLane="best" departSpeed="max" from="541418923" to="160811510#0"/>
    <trip id="veh194" type="veh_passenger" depart="30.56" departLane="best" departSpeed="max" from="542140911#0" to="527640919#0"/>
    <trip id="veh195" type="veh_passenger" depart="30.72" departLane="best" departSpeed="max" from="-27320272#8" to="426381467#0"/>
    <trip id="veh196" type="veh_passenger" depart="30.88" departLane="best" departSpeed="max" from="527640932" to="14927985#11"/>
    <trip id="veh197" type="veh_passenger" depart="31.03" departLane="best" departSpeed="max" from="426381445#0" to="137152442"/>
    <trip id="veh198" type="veh_passenger" depart="31.19" departLane="best" departSpeed="max" from="-137171472#3" to="137152453#2"/>
    <trip id="veh199" type="veh_passenger" depart="31.35" departLane="best" departSpeed="max" from="-527640919#1" to="137171472#3"/>
    <trip id="veh200" type="veh_passenger" depart="31.51" departLane="best" departSpeed="max" from="14922678#0" to="-531157852#1"/>
    <trip id="veh201" type="veh_passenger" depart="31.66" departLane="best" departSpeed="max" from="-27320272#8" to="515071382"/>
    <trip id="veh202" type="veh_passenger" depart="31.82" departLane="best" departSpeed="max" from="523064202" to="-522765237#1"/>
    <trip id="veh203" type="veh_passenger" depart="31.98" departLane="best" from="-532976501#3" to="-541418934#0"/>
    <trip id="veh204" type="veh_passenger" depart="32.14" departLane="best" departSpeed="max" from="-543227057" to="542526973#0"/>
    <trip id="veh205" type="veh_passenger" depart="32.29" departLane="best" departSpeed="max" from="426381445#0" to="515071382"/>
    <trip id="veh206" type="veh_passenger" depart="32.45" departLane="best" departSpeed="max" from="-529598126#1" to="527640924#1"/>
    <trip id="veh207" type="veh_passenger" depart="32.61" departLane="best" departSpeed="max" from="541418934#0" to="543227057"/>
    <trip id="veh208" type="veh_passenger" depart="32.77" departLane="best" departSpeed="max" from="-543227057" to="527640919#0"/>
    <trip id="veh209" type="veh_passenger" depart="32.93" departLane="best" from="27362095#1" to="277481379#5"/>
    <trip id="veh210" type="veh_passenger" depart="33.08" departLane="best" departSpeed="max" from="-543227057" to="-14922678#0"/>
    <trip id="veh211" type="veh_passenger" depart="33.24" departLane="best" departSpeed="max" from="-529598126#1" to="515071382"/>
    <trip id="veh212" type="veh_passenger" depart="33.40" departLane="best" departSpeed="max" from="-530900115" to="-531157852#1"/>
    <trip id="veh213" type="veh_passenger" depart="33.56" departLane="best" departSpeed="max" from="137152430#0" to="-523064202"/>
    <trip id="veh214" type="veh_passenger" depart="33.71" departLane="best" departSpeed="max" from="426381445#0" to="-14922678#0"/>
    <trip id="veh215" type="veh_passenger" depart="33.87" departLane="best" departSpeed="max" from="-530900115" to="27275240#0"/>
    <trip id="veh216" type="veh_passenger" depart="34.03" departLane="best" departSpeed="max" from="-137163565#3" to="426381467#0"/>
    <trip id="veh217" type="veh_passenger" depart="34.19" departLane="best" departSpeed="max" from="-141436132#2" to="14915133#13"/>
    <trip id="veh218" type="veh_passenger" depart="34.34" departLane="best" departSpeed="max" from="-137171472#3" to="140066798#5"/>
    <trip id="veh219" type="veh_passenger" depart="34.50" departLane="best" departSpeed="max" from="-160811510#1" to="137171472#3"/>
    <trip id="veh220" type="veh_passenger" depart="34.66" departLane="best" departSpeed="max" from="527640932" to="140066798#5"/>
    <trip id="veh221" type="veh_passenger" depart="34.82" departLane="best" departSpeed="max" from="527640932" to="530900115"/>