<?xml version="1.0" encoding="UTF-8"?>

<!-- generated on Tue Sep 17 09:58:31 2019 by Eclipse SUMO netconvert Version 1.2.0
<configuration xmlns:xsi="http://www.w3.org/2001/XMLSchema-instance" xsi:noNamespaceSchemaLocation="http://sumo.dlr.de/xsd/netconvertConfiguration.xsd">

    <input>
        <type-files value="/usr/share/sumo/data/typemap/osmNetconvert.typ.xml"/>
        <osm-files value="osm_bbox.osm.xml"/>
    </input>

    <output>
        <output-file value="osm.net.xml"/>
        <output.street-names value="true"/>
        <output.original-names value="true"/>
    </output>

    <projection>
        <proj.utm value="true"/>
    </projection>

    <processing>
        <geometry.remove value="true"/>
        <roundabouts.guess value="true"/>
    </processing>

    <tls_building>
        <tls.discard-simple value="true"/>
        <tls.join value="true"/>
        <tls.guess-signals value="true"/>
        <tls.default-type value="actuated"/>
    </tls_building>

    <ramp_guessing>
        <ramps.guess value="true"/>
    </ramp_guessing>

    <junctions>
        <junctions.join value="true"/>
        <junctions.corner-detail value="5"/>
    </junctions>

    <report>
        <verbose value="true"/>
    </report>

</configuration>
-->

<net version="1.1" junctionCornerDetail="5" limitTurnSpeed="5.50" xmlns:xsi="http://www.w3.org/2001/XMLSchema-instance" xsi:noNamespaceSchemaLocation="http://sumo.dlr.de/xsd/net_file.xsd">

    <location netOffset="-724169.97,-5031288.43" convBoundary="0.00,0.00,1419.29,1672.56" origBoundary="11.864494,45.387635,11.886069,45.414068" projParameter="+proj=utm +zone=32 +ellps=WGS84 +datum=WGS84 +units=m +no_defs"/>

    <type id="highway.bridleway" priority="1" numLanes="1" speed="2.78" allow="pedestrian" oneway="1" width="2.00"/>
    <type id="highway.bus_guideway" priority="1" numLanes="1" speed="27.78" allow="bus" oneway="1"/>
    <type id="highway.cycleway" priority="1" numLanes="1" speed="8.33" allow="bicycle" oneway="0" width="1.00"/>
    <type id="highway.footway" priority="1" numLanes="1" speed="2.78" allow="pedestrian" oneway="1" width="2.00"/>
    <type id="highway.ford" priority="1" numLanes="1" speed="2.78" allow="army" oneway="0"/>
    <type id="highway.living_street" priority="2" numLanes="1" speed="2.78" disallow="tram rail_urban rail rail_electric ship" oneway="0"/>
    <type id="highway.motorway" priority="14" numLanes="2" speed="39.44" allow="private emergency authority army vip passenger hov taxi bus coach delivery truck trailer motorcycle evehicle custom1 custom2" oneway="1"/>
    <type id="highway.motorway_link" priority="9" numLanes="1" speed="22.22" allow="private emergency authority army vip passenger hov taxi bus coach delivery truck trailer motorcycle evehicle custom1 custom2" oneway="1"/>
    <type id="highway.path" priority="1" numLanes="1" speed="2.78" allow="bicycle pedestrian" oneway="1" width="2.00"/>
    <type id="highway.pedestrian" priority="1" numLanes="1" speed="2.78" allow="pedestrian" oneway="1" width="2.00"/>
    <type id="highway.primary" priority="12" numLanes="2" speed="27.78" disallow="tram rail_urban rail rail_electric ship" oneway="0"/>
    <type id="highway.primary_link" priority="7" numLanes="1" speed="22.22" disallow="tram rail_urban rail rail_electric ship" oneway="0"/>
    <type id="highway.raceway" priority="15" numLanes="2" speed="83.33" allow="vip" oneway="0"/>
    <type id="highway.residential" priority="3" numLanes="1" speed="13.89" disallow="tram rail_urban rail rail_electric ship" oneway="0"/>
    <type id="highway.residential|railway.tram" priority="17" numLanes="1" speed="13.89" disallow="rail_urban rail rail_electric ship" oneway="0"/>
    <type id="highway.secondary" priority="11" numLanes="2" speed="27.78" disallow="tram rail_urban rail rail_electric ship" oneway="0"/>
    <type id="highway.secondary_link" priority="6" numLanes="1" speed="22.22" disallow="tram rail_urban rail rail_electric ship" oneway="0"/>
    <type id="highway.service" priority="1" numLanes="1" speed="5.56" allow="delivery bicycle pedestrian" oneway="0"/>
    <type id="highway.stairs" priority="1" numLanes="1" speed="1.39" allow="pedestrian" oneway="1" width="2.00"/>
    <type id="highway.step" priority="1" numLanes="1" speed="1.39" allow="pedestrian" oneway="1" width="2.00"/>
    <type id="highway.steps" priority="1" numLanes="1" speed="1.39" allow="pedestrian" oneway="1" width="2.00"/>
    <type id="highway.tertiary" priority="10" numLanes="1" speed="22.22" disallow="tram rail_urban rail rail_electric ship" oneway="0"/>
    <type id="highway.tertiary_link" priority="5" numLanes="1" speed="22.22" disallow="tram rail_urban rail rail_electric ship" oneway="0"/>
    <type id="highway.track" priority="1" numLanes="1" speed="5.56" disallow="tram rail_urban rail rail_electric ship" oneway="0"/>
    <type id="highway.trunk" priority="13" numLanes="2" speed="27.78" disallow="tram rail_urban rail rail_electric bicycle pedestrian ship" oneway="0"/>
    <type id="highway.trunk_link" priority="8" numLanes="1" speed="22.22" disallow="tram rail_urban rail rail_electric bicycle pedestrian ship" oneway="0"/>
    <type id="highway.unclassified" priority="4" numLanes="1" speed="13.89" disallow="tram rail_urban rail rail_electric ship" oneway="0"/>
    <type id="highway.unsurfaced" priority="1" numLanes="1" speed="8.33" disallow="tram rail_urban rail rail_electric ship" oneway="0"/>
    <type id="railway.light_rail" priority="19" numLanes="1" speed="27.78" allow="rail_urban" oneway="1"/>
    <type id="railway.preserved" priority="16" numLanes="1" speed="27.78" allow="rail" oneway="1"/>
    <type id="railway.rail" priority="20" numLanes="1" speed="83.33" allow="rail rail_electric" oneway="1"/>
    <type id="railway.subway" priority="18" numLanes="1" speed="27.78" allow="rail_urban" oneway="1"/>
    <type id="railway.tram" priority="17" numLanes="1" speed="13.89" allow="tram" oneway="1"/>

    <edge id=":1081234298_0" function="internal">
        <lane id=":1081234298_0_0" index="0" disallow="tram rail_urban rail rail_electric ship" speed="13.89" length="4.97" shape="816.65,1201.56 811.68,1201.31"/>
    </edge>
    <edge id=":1102179780_0" function="internal">
        <lane id=":1102179780_0_0" index="0" allow="bicycle" speed="2.04" length="1.46" width="1.00" shape="0.91,863.75 0.56,863.47 0.45,863.21 0.60,862.97 0.99,862.75"/>
    </edge>
    <edge id=":1113558299_0" function="internal">
        <lane id=":1113558299_0_0" index="0" allow="bicycle" speed="2.04" length="1.46" width="1.00" shape="66.16,66.69 66.28,66.25 66.47,66.05 66.75,66.09 67.11,66.37"/>
    </edge>
    <edge id=":1113558654_0" function="internal">
        <lane id=":1113558654_0_0" index="0" allow="bus bicycle" speed="8.33" length="5.04" shape="938.37,466.07 938.23,467.55 938.06,468.57 937.76,469.55 937.21,470.94"/>
    </edge>
    <edge id=":1113558654_1" function="internal">
        <lane id=":1113558654_1_0" index="0" disallow="rail_urban rail rail_electric pedestrian ship" speed="3.65" length="2.34" shape="938.37,466.07 937.47,467.20 936.64,467.53"/>
    </edge>
    <edge id=":1113558654_4" function="internal">
        <lane id=":1113558654_4_0" index="0" disallow="rail_urban rail rail_electric pedestrian ship" speed="3.65" length="2.34" shape="936.64,467.53 935.88,467.06 935.18,465.80"/>
    </edge>
    <edge id=":1113558654_2" function="internal">
        <lane id=":1113558654_2_0" index="0" disallow="rail_urban rail rail_electric pedestrian ship" speed="8.33" length="4.07" shape="934.24,469.74 934.68,468.61 934.93,467.82 935.07,467.00 935.18,465.80"/>
    </edge>
    <edge id=":1113558654_3" function="internal">
        <lane id=":1113558654_3_0" index="0" allow="bus bicycle" speed="3.65" length="2.34" shape="934.24,469.74 935.43,468.92 936.32,468.85"/>
    </edge>
    <edge id=":1113558654_5" function="internal">
        <lane id=":1113558654_5_0" index="0" allow="bus bicycle" speed="3.65" length="2.34" shape="936.32,468.85 936.92,469.52 937.21,470.94"/>
    </edge>
    <edge id=":1172246953_0" function="internal">
        <lane id=":1172246953_0_0" index="0" disallow="tram rail_urban rail rail_electric ship" speed="8.33" length="4.89" shape="784.37,924.65 784.36,929.54"/>
    </edge>
    <edge id=":1172246956_0" function="internal">
        <lane id=":1172246956_0_0" index="0" disallow="tram rail_urban rail rail_electric ship" speed="8.33" length="5.07" shape="783.87,910.77 784.02,915.84"/>
    </edge>
    <edge id=":1222841091_0" function="internal">
        <lane id=":1222841091_0_0" index="0" disallow="tram rail_urban rail rail_electric ship" speed="13.89" length="13.34" shape="831.87,1199.88 828.41,1200.01 825.29,1200.69 822.16,1201.40 818.69,1201.64"/>
    </edge>
    <edge id=":1222841091_1" function="internal">
        <lane id=":1222841091_1_0" index="0" allow="delivery bicycle pedestrian" speed="9.72" length="13.06" shape="831.87,1199.88 818.96,1197.87"/>
        <lane id=":1222841091_1_1" index="1" allow="delivery bicycle pedestrian" speed="9.72" length="13.06" shape="831.87,1199.88 828.77,1199.19 826.35,1197.93 823.71,1196.37 819.93,1194.81"/>
    </edge>
    <edge id=":1233582991_0" function="internal">
        <lane id=":1233582991_0_0" index="0" disallow="tram rail_urban rail rail_electric ship" speed="3.65" length="4.67" shape="734.63,1052.48 734.73,1053.92 734.35,1054.73 733.47,1054.91 732.10,1054.45"/>
    </edge>
    <edge id=":1365188964_0" function="internal">
        <lane id=":1365188964_0_0" index="0" disallow="tram rail_urban rail rail_electric ship" speed="8.33" length="1.57" shape="577.48,880.67 575.94,880.94"/>
    </edge>
    <edge id=":1451953235_0" function="internal">
        <lane id=":1451953235_0_0" index="0" disallow="tram rail_urban rail rail_electric ship" speed="8.33" length="6.02" shape="289.80,1220.76 292.02,1226.35"/>
    </edge>
    <edge id=":1459072246_0" function="internal">
        <lane id=":1459072246_0_0" index="0" allow="bus bicycle" speed="9.34" length="5.09" shape="1021.00,1160.50 1019.94,1159.48 1019.04,1158.96 1018.01,1158.68 1016.53,1158.37"/>
    </edge>
    <edge id=":1459072246_1" function="internal">
        <lane id=":1459072246_1_0" index="0" allow="delivery bicycle pedestrian" speed="6.55" length="3.28" shape="1021.00,1160.50 1020.09,1159.01 1019.94,1157.48"/>
    </edge>
    <edge id=":1459072246_2" function="internal">
        <lane id=":1459072246_2_0" index="0" disallow="tram rail_urban rail rail_electric ship" speed="3.71" length="2.86" shape="1021.00,1160.50 1020.33,1159.15 1020.38,1158.22 1020.73,1157.99"/>
    </edge>
    <edge id=":1459072246_6" function="internal">
        <lane id=":1459072246_6_0" index="0" allow="delivery bicycle pedestrian" speed="6.55" length="4.60" shape="1019.94,1157.48 1019.92,1157.32 1020.47,1155.42 1021.76,1153.33"/>
    </edge>
    <edge id=":1459072246_7" function="internal">
        <lane id=":1459072246_7_0" index="0" disallow="tram rail_urban rail rail_electric ship" speed="3.71" length="2.02" shape="1020.73,1157.99 1021.16,1157.70 1022.66,1157.60"/>
    </edge>
    <edge id=":1459072246_3" function="internal">
        <lane id=":1459072246_3_0" index="0" allow="delivery bicycle pedestrian" speed="6.04" length="5.20" shape="1017.26,1155.25 1018.51,1155.36 1019.68,1155.08 1020.77,1154.40 1021.76,1153.33"/>
    </edge>
    <edge id=":1459072246_4" function="internal">
        <lane id=":1459072246_4_0" index="0" disallow="tram rail_urban rail rail_electric ship" speed="10.19" length="6.06" shape="1017.26,1155.25 1019.03,1155.60 1020.29,1155.87 1021.38,1156.41 1022.66,1157.60"/>
    </edge>
    <edge id=":1459072246_5" function="internal">
        <lane id=":1459072246_5_0" index="0" allow="bus bicycle" speed="3.65" length="2.34" shape="1017.26,1155.25 1018.24,1156.31 1018.45,1157.18"/>
    </edge>
    <edge id=":1459072246_8" function="internal">
        <lane id=":1459072246_8_0" index="0" allow="bus bicycle" speed="3.65" length="2.34" shape="1018.45,1157.18 1017.88,1157.86 1016.53,1158.37"/>
    </edge>
    <edge id=":1459072261_0" function="internal">
        <lane id=":1459072261_0_0" index="0" allow="bus bicycle" speed="13.89" length="7.86" shape="1029.84,1176.94 1029.32,1174.67 1028.85,1173.14 1028.21,1171.67 1027.17,1169.59"/>
    </edge>
    <edge id=":1459072261_1" function="internal">
        <lane id=":1459072261_1_0" index="0" disallow="tram rail_urban rail rail_electric ship" speed="3.65" length="2.34" shape="1029.84,1176.94 1030.36,1175.60 1031.06,1175.04"/>
    </edge>
    <edge id=":1459072261_6" function="internal">
        <lane id=":1459072261_6_0" index="0" disallow="tram rail_urban rail rail_electric ship" speed="3.65" length="2.34" shape="1031.06,1175.04 1031.93,1175.26 1032.96,1176.26"/>
    </edge>
    <edge id=":1459072261_2" function="internal">
        <lane id=":1459072261_2_0" index="0" disallow="tram rail_urban rail rail_electric ship" speed="9.72" length="7.67" shape="1034.70,1169.02 1033.72,1171.09 1033.01,1172.57 1032.70,1174.08 1032.96,1176.26"/>
    </edge>
    <edge id=":1459072261_3" function="internal">
        <lane id=":1459072261_3_0" index="0" allow="bus bicycle" speed="5.99" length="11.58" shape="1034.70,1169.02 1032.92,1172.27 1031.07,1173.45 1029.15,1172.56 1027.17,1169.59"/>
    </edge>
    <edge id=":1459072261_4" function="internal">
        <lane id=":1459072261_4_0" index="0" disallow="tram rail_urban rail rail_electric ship" speed="13.89" length="7.90" shape="1030.38,1168.84 1031.41,1170.94 1032.02,1172.43 1032.45,1173.97 1032.96,1176.26"/>
    </edge>
    <edge id=":1459072261_5" function="internal">
        <lane id=":1459072261_5_0" index="0" allow="bus bicycle" speed="3.68" length="2.02" shape="1030.38,1168.84 1029.86,1170.23 1029.45,1170.57"/>
    </edge>
    <edge id=":1459072261_7" function="internal">
        <lane id=":1459072261_7_0" index="0" allow="bus bicycle" speed="3.68" length="2.79" shape="1029.45,1170.57 1029.15,1170.81 1028.26,1170.60 1027.17,1169.59"/>
    </edge>
    <edge id=":1459105620_0" function="internal">
        <lane id=":1459105620_0_0" index="0" disallow="tram rail_urban rail rail_electric ship" speed="5.26" length="7.71" shape="1007.41,1331.18 1009.03,1332.31 1009.46,1333.64 1008.69,1335.17 1006.73,1336.91"/>
    </edge>
    <edge id=":1459121860_0" function="internal">
        <lane id=":1459121860_0_0" index="0" disallow="tram rail_urban rail rail_electric ship" speed="10.17" length="5.62" shape="851.81,1205.67 850.66,1204.51 849.70,1203.89 848.58,1203.53 846.97,1203.10"/>
    </edge>
    <edge id=":1459121860_1" function="internal">
        <lane id=":1459121860_1_0" index="0" disallow="tram rail_urban rail rail_electric ship" speed="8.32" length="5.57" shape="851.81,1205.67 850.85,1204.39 850.47,1203.33 850.42,1202.15 850.47,1200.49"/>
    </edge>
    <edge id=":1459121924_0" function="internal">
        <lane id=":1459121924_0_0" index="0" disallow="tram rail_urban rail rail_electric ship" speed="3.65" length="4.67" shape="824.00,1265.20 824.82,1264.02 825.63,1263.63 826.42,1264.05 827.20,1265.26"/>
    </edge>
    <edge id=":1459165176_0" function="internal">
        <lane id=":1459165176_0_0" index="0" disallow="tram rail_urban rail rail_electric ship" speed="8.33" length="5.13" shape="606.44,444.28 606.36,439.15"/>
    </edge>
    <edge id=":1459245068_0" function="internal">
        <lane id=":1459245068_0_0" index="0" disallow="tram rail_urban rail rail_electric ship" speed="3.65" length="4.67" shape="809.20,1069.09 808.19,1070.12 807.33,1070.36 806.62,1069.81 806.06,1068.49"/>
    </edge>
    <edge id=":1459245089_0" function="internal">
        <lane id=":1459245089_0_0" index="0" disallow="tram rail_urban rail rail_electric ship" speed="7.04" length="6.27" shape="847.35,1184.22 849.06,1183.14 850.29,1182.03 851.04,1180.88 851.33,1179.70"/>
    </edge>
    <edge id=":1459245089_1" function="internal">
        <lane id=":1459245089_1_0" index="0" disallow="tram rail_urban rail rail_electric ship" speed="13.89" length="6.82" shape="850.94,1186.50 851.33,1179.70"/>
    </edge>
    <edge id=":1459245094_0" function="internal">
        <lane id=":1459245094_0_0" index="0" allow="delivery bicycle pedestrian" speed="5.56" length="4.25" shape="782.68,1190.24 781.92,1189.45 781.39,1188.57 781.08,1187.58 781.01,1186.49"/>
    </edge>
    <edge id=":1459270005_0" function="internal">
        <lane id=":1459270005_0_0" index="0" disallow="tram rail_urban rail rail_electric ship" speed="22.22" length="5.21" shape="467.33,1159.21 462.12,1159.29"/>
    </edge>
    <edge id=":1459270005_1" function="internal">
        <lane id=":1459270005_1_0" index="0" disallow="tram rail_urban rail rail_electric ship" speed="3.65" length="2.34" shape="467.33,1159.21 466.11,1158.44 465.69,1157.65"/>
    </edge>
    <edge id=":1459270005_4" function="internal">
        <lane id=":1459270005_4_0" index="0" disallow="tram rail_urban rail rail_electric ship" speed="3.65" length="2.34" shape="465.69,1157.65 466.07,1156.84 467.25,1156.01"/>
    </edge>
    <edge id=":1459270005_2" function="internal">
        <lane id=":1459270005_2_0" index="0" disallow="tram rail_urban rail rail_electric ship" speed="22.22" length="5.15" shape="462.10,1156.09 467.25,1156.01"/>
    </edge>
    <edge id=":1459270005_3" function="internal">
        <lane id=":1459270005_3_0" index="0" disallow="tram rail_urban rail rail_electric ship" speed="3.65" length="2.34" shape="462.10,1156.09 463.31,1156.89 463.71,1157.68"/>
    </edge>
    <edge id=":1459270005_5" function="internal">
        <lane id=":1459270005_5_0" index="0" disallow="tram rail_urban rail rail_electric ship" speed="3.65" length="2.34" shape="463.71,1157.68 463.32,1158.49 462.12,1159.29"/>
    </edge>
    <edge id=":1459284672_0" function="internal">
        <lane id=":1459284672_0_0" index="0" disallow="tram rail_urban rail rail_electric ship" speed="13.89" length="3.67" shape="938.55,1355.02 942.06,1353.97"/>
    </edge>
    <edge id=":1459309077_0" function="internal">
        <lane id=":1459309077_0_0" index="0" allow="delivery bicycle pedestrian" speed="3.65" length="4.67" shape="801.41,1099.03 802.27,1097.87 803.09,1097.51 803.87,1097.95 804.61,1099.19"/>
    </edge>
    <edge id=":1459353831_0" function="internal">
        <lane id=":1459353831_0_0" index="0" disallow="tram rail_urban rail rail_electric ship" speed="13.89" length="5.65" shape="1233.43,340.46 1227.90,339.33"/>
    </edge>
    <edge id=":1459353831_1" function="internal">
        <lane id=":1459353831_1_0" index="0" allow="bus bicycle" speed="3.65" length="2.34" shape="1233.43,340.46 1232.41,339.45 1232.17,338.58"/>
    </edge>
    <edge id=":1459353831_4" function="internal">
        <lane id=":1459353831_4_0" index="0" allow="bus bicycle" speed="3.65" length="2.34" shape="1232.17,338.58 1232.72,337.88 1234.05,337.32"/>
    </edge>
    <edge id=":1459353831_2" function="internal">
        <lane id=":1459353831_2_0" index="0" allow="bus bicycle" speed="13.89" length="5.61" shape="1228.56,336.20 1234.05,337.32"/>
    </edge>
    <edge id=":1459353831_3" function="internal">
        <lane id=":1459353831_3_0" index="0" disallow="tram rail_urban rail rail_electric ship" speed="3.65" length="2.34" shape="1228.56,336.20 1229.57,337.23 1229.80,338.10"/>
    </edge>
    <edge id=":1459353831_5" function="internal">
        <lane id=":1459353831_5_0" index="0" disallow="tram rail_urban rail rail_electric ship" speed="3.65" length="2.34" shape="1229.80,338.10 1229.24,338.79 1227.90,339.33"/>
    </edge>
    <edge id=":1460555322_0" function="internal">
        <lane id=":1460555322_0_0" index="0" allow="bus bicycle" speed="15.28" length="1.54" shape="693.35,1377.40 693.32,1375.86"/>
    </edge>
    <edge id=":1460555322_1" function="internal">
        <lane id=":1460555322_1_0" index="0" disallow="tram rail_urban rail rail_electric ship" speed="15.28" length="0.14" shape="696.52,1375.81 696.52,1375.95"/>
    </edge>
    <edge id=":1461869753_0" function="internal">
        <lane id=":1461869753_0_0" index="0" disallow="tram rail_urban rail rail_electric ship" speed="8.33" length="11.21" shape="862.29,865.39 851.38,867.95"/>
    </edge>
    <edge id=":1461869753_1" function="internal">
        <lane id=":1461869753_1_0" index="0" disallow="tram rail_urban rail rail_electric ship" speed="7.59" length="3.90" shape="862.29,865.39 859.91,865.37 858.60,864.61"/>
    </edge>
    <edge id=":1461869753_2" function="internal">
        <lane id=":1461869753_2_0" index="0" disallow="tram rail_urban rail rail_electric ship" speed="3.65" length="2.34" shape="862.29,865.39 860.94,864.88 860.37,864.20"/>
    </edge>
    <edge id=":1461869753_6" function="internal">
        <lane id=":1461869753_6_0" index="0" disallow="tram rail_urban rail rail_electric ship" speed="7.59" length="7.92" shape="858.60,864.61 857.80,864.15 855.98,861.71 854.44,858.07"/>
    </edge>
    <edge id=":1461869753_7" function="internal">
        <lane id=":1461869753_7_0" index="0" disallow="tram rail_urban rail rail_electric ship" speed="3.65" length="2.34" shape="860.37,864.20 860.58,863.33 861.56,862.27"/>
    </edge>
    <edge id=":1461869753_3" function="internal">
        <lane id=":1461869753_3_0" index="0" disallow="tram rail_urban rail rail_electric ship" speed="6.33" length="9.04" shape="850.65,864.84 852.98,863.92 854.39,862.49 854.88,860.54 854.44,858.07"/>
    </edge>
    <edge id=":1461869753_4" function="internal">
        <lane id=":1461869753_4_0" index="0" disallow="tram rail_urban rail rail_electric ship" speed="8.33" length="11.21" shape="850.65,864.84 861.56,862.27"/>
    </edge>
    <edge id=":1461869753_5" function="internal">
        <lane id=":1461869753_5_0" index="0" disallow="tram rail_urban rail rail_electric ship" speed="3.65" length="2.34" shape="850.65,864.84 852.00,865.34 852.57,866.03"/>
    </edge>
    <edge id=":1461869753_8" function="internal">
        <lane id=":1461869753_8_0" index="0" disallow="tram rail_urban rail rail_electric ship" speed="3.65" length="2.34" shape="852.57,866.03 852.36,866.90 851.38,867.95"/>
    </edge>
    <edge id=":1463860084_0" function="internal">
        <lane id=":1463860084_0_0" index="0" disallow="tram rail_urban rail rail_electric ship" speed="13.89" length="4.53" shape="827.20,1265.46 827.11,1269.99"/>
    </edge>
    <edge id=":1463860084_1" function="internal">
        <lane id=":1463860084_1_0" index="0" disallow="tram rail_urban rail rail_electric ship" speed="3.65" length="2.34" shape="827.20,1265.46 826.38,1266.65 825.57,1267.03"/>
    </edge>
    <edge id=":1463860084_4" function="internal">
        <lane id=":1463860084_4_0" index="0" disallow="tram rail_urban rail rail_electric ship" speed="3.65" length="2.34" shape="825.57,1267.03 824.78,1266.62 824.00,1265.40"/>
    </edge>
    <edge id=":1463860084_2" function="internal">
        <lane id=":1463860084_2_0" index="0" disallow="tram rail_urban rail rail_electric ship" speed="13.89" length="4.53" shape="823.91,1269.93 824.00,1265.40"/>
    </edge>
    <edge id=":1463860084_3" function="internal">
        <lane id=":1463860084_3_0" index="0" disallow="tram rail_urban rail rail_electric ship" speed="3.65" length="2.34" shape="823.91,1269.93 824.74,1268.75 825.54,1268.36"/>
    </edge>
    <edge id=":1463860084_5" function="internal">
        <lane id=":1463860084_5_0" index="0" disallow="tram rail_urban rail rail_electric ship" speed="3.65" length="2.34" shape="825.54,1268.36 826.34,1268.78 827.11,1269.99"/>
    </edge>
    <edge id=":1463860087_0" function="internal">
        <lane id=":1463860087_0_0" index="0" disallow="tram rail_urban rail rail_electric ship" speed="13.89" length="5.00" shape="778.06,1284.24 777.75,1289.23"/>
    </edge>
    <edge id=":1463860090_0" function="internal">
        <lane id=":1463860090_0_0" index="0" disallow="tram rail_urban rail rail_electric ship" speed="13.89" length="5.00" shape="825.75,1310.11 825.35,1305.13"/>
    </edge>
    <edge id=":1463860090_1" function="internal">
        <lane id=":1463860090_1_0" index="0" disallow="tram rail_urban rail rail_electric ship" speed="3.65" length="2.34" shape="825.75,1310.11 826.45,1308.85 827.21,1308.39"/>
    </edge>
    <edge id=":1463860090_4" function="internal">
        <lane id=":1463860090_4_0" index="0" disallow="tram rail_urban rail rail_electric ship" speed="3.65" length="2.34" shape="827.21,1308.39 828.04,1308.72 828.93,1309.86"/>
    </edge>
    <edge id=":1463860090_2" function="internal">
        <lane id=":1463860090_2_0" index="0" disallow="tram rail_urban rail rail_electric ship" speed="13.89" length="5.00" shape="828.53,1304.88 828.93,1309.86"/>
    </edge>
    <edge id=":1463860090_3" function="internal">
        <lane id=":1463860090_3_0" index="0" disallow="tram rail_urban rail rail_electric ship" speed="3.65" length="2.34" shape="828.53,1304.88 827.83,1306.14 827.07,1306.60"/>
    </edge>
    <edge id=":1463860090_5" function="internal">
        <lane id=":1463860090_5_0" index="0" disallow="tram rail_urban rail rail_electric ship" speed="3.65" length="2.34" shape="827.07,1306.60 826.24,1306.26 825.35,1305.13"/>
    </edge>
    <edge id=":1503077935_0" function="internal">
        <lane id=":1503077935_0_0" index="0" disallow="tram rail_urban rail rail_electric ship" speed="8.33" length="4.83" shape="639.88,893.12 639.85,891.69 639.80,890.71 639.71,889.73 639.54,888.31"/>
    </edge>
    <edge id=":1521477302_0" function="internal">
        <lane id=":1521477302_0_0" index="0" allow="delivery bicycle pedestrian" speed="6.43" length="4.23" shape="814.53,1381.37 813.46,1381.54 812.50,1381.92 811.66,1382.51 810.94,1383.32"/>
    </edge>
    <edge id=":1521477302_1" function="internal">
        <lane id=":1521477302_1_0" index="0" disallow="tram rail_urban rail rail_electric ship" speed="3.65" length="4.67" shape="814.53,1381.37 813.29,1380.63 812.85,1379.86 813.21,1379.04 814.37,1378.18"/>
    </edge>
    <edge id=":1521477302_2" function="internal">
        <lane id=":1521477302_2_0" index="0" disallow="tram rail_urban rail rail_electric ship" speed="8.15" length="7.08" shape="808.35,1381.43 809.56,1380.08 810.97,1379.09 812.57,1378.45 814.37,1378.18"/>
    </edge>
    <edge id=":1521477302_3" function="internal">
        <lane id=":1521477302_3_0" index="0" allow="delivery bicycle pedestrian" speed="3.65" length="4.67" shape="808.35,1381.43 809.70,1380.93 810.59,1381.08 811.00,1381.88 810.94,1383.32"/>
    </edge>
    <edge id=":1521477310_0" function="internal">
        <lane id=":1521477310_0_0" index="0" disallow="tram rail_urban rail rail_electric ship" speed="13.89" length="5.42" shape="944.81,1401.53 943.96,1400.17 943.32,1399.27 942.64,1398.41 941.63,1397.16"/>
    </edge>
    <edge id=":1521477311_0" function="internal">
        <lane id=":1521477311_0_0" index="0" allow="delivery bicycle pedestrian" speed="3.65" length="4.67" shape="807.03,1399.13 806.22,1400.32 805.41,1400.71 804.62,1400.31 803.83,1399.10"/>
    </edge>
    <edge id=":1521531450_0" function="internal">
        <lane id=":1521531450_0_0" index="0" allow="bus bicycle" speed="13.89" length="5.21" shape="1076.75,1509.26 1076.08,1504.10"/>
    </edge>
    <edge id=":1521531450_1" function="internal">
        <lane id=":1521531450_1_0" index="0" disallow="rail_urban rail rail_electric pedestrian ship" speed="3.65" length="2.34" shape="1076.75,1509.26 1077.40,1507.97 1078.15,1507.48"/>
    </edge>
    <edge id=":1521531450_4" function="internal">
        <lane id=":1521531450_4_0" index="0" disallow="rail_urban rail rail_electric pedestrian ship" speed="3.65" length="2.34" shape="1078.15,1507.48 1078.99,1507.78 1079.93,1508.87"/>
    </edge>
    <edge id=":1521531450_2" function="internal">
        <lane id=":1521531450_2_0" index="0" disallow="rail_urban rail rail_electric pedestrian ship" speed="13.89" length="5.26" shape="1079.24,1503.65 1079.93,1508.87"/>
    </edge>
    <edge id=":1521531450_3" function="internal">
        <lane id=":1521531450_3_0" index="0" allow="bus bicycle" speed="3.65" length="2.34" shape="1079.24,1503.65 1078.62,1504.95 1077.88,1505.46"/>
    </edge>
    <edge id=":1521531450_5" function="internal">
        <lane id=":1521531450_5_0" index="0" allow="bus bicycle" speed="3.65" length="2.34" shape="1077.88,1505.46 1077.03,1505.17 1076.08,1504.10"/>
    </edge>
    <edge id=":1546510538_0" function="internal">
        <lane id=":1546510538_0_0" index="0" disallow="tram rail_urban rail rail_electric ship" speed="3.65" length="4.67" shape="1131.51,957.09 1132.43,955.98 1133.27,955.66 1134.02,956.14 1134.69,957.41"/>
    </edge>
    <edge id=":1546510573_0" function="internal">
        <lane id=":1546510573_0_0" index="0" allow="delivery bicycle pedestrian" speed="3.65" length="4.67" shape="1234.68,1096.81 1234.38,1098.22 1233.78,1098.89 1232.89,1098.81 1231.71,1097.99"/>
    </edge>
    <edge id=":1627106716_0" function="internal">
        <lane id=":1627106716_0_0" index="0" disallow="tram rail_urban rail rail_electric ship" speed="3.65" length="4.67" shape="1338.39,358.36 1339.40,359.39 1339.63,360.25 1339.08,360.96 1337.74,361.50"/>
    </edge>
    <edge id=":1645027120_0" function="internal">
        <lane id=":1645027120_0_0" index="0" disallow="tram rail_urban rail rail_electric ship" speed="8.33" length="4.97" shape="641.16,978.87 640.53,973.94"/>
    </edge>
    <edge id=":1645027120_1" function="internal">
        <lane id=":1645027120_1_0" index="0" disallow="tram rail_urban rail rail_electric ship" speed="3.65" length="2.34" shape="641.16,978.87 641.79,977.57 642.53,977.07"/>
    </edge>
    <edge id=":1645027120_4" function="internal">
        <lane id=":1645027120_4_0" index="0" disallow="tram rail_urban rail rail_electric ship" speed="3.65" length="2.34" shape="642.53,977.07 643.37,977.35 644.33,978.43"/>
    </edge>
    <edge id=":1645027120_2" function="internal">