<?xml version="1.0" encoding="UTF-8"?>

<!-- generated on Tue Sep 17 09:58:32 2019 by Eclipse SUMO polyconvert Version 1.2.0
<configuration xmlns:xsi="http://www.w3.org/2001/XMLSchema-instance" xsi:noNamespaceSchemaLocation="http://sumo.dlr.de/xsd/polyconvertConfiguration.xsd">

    <input>
        <net-file value="osm.net.xml"/>
        <osm-files value="osm_bbox.osm.xml"/>
        <osm.keep-full-type value="true"/>
        <type-file value="/usr/share/sumo/data/typemap/osmPolyconvert.typ.xml"/>
    </input>

    <output>
        <output-file value="osm.poly.xml"/>
    </output>

    <processing>
        <poi-layer-offset value="5"/>
    </processing>

    <report>
        <verbose value="true"/>
    </report>

</configuration>
-->

<additional xmlns:xsi="http://www.w3.org/2001/XMLSchema-instance" xsi:noNamespaceSchemaLocation="http://sumo.dlr.de/xsd/additional_file.xsd">
    <location netOffset="-724169.97,-5031288.43" convBoundary="-1470.30,-1497.10,2613.29,2371.13" origBoundary="11.845441,45.385279,11.898000,45.420454" projParameter="+proj=utm +zone=32 +ellps=WGS84 +datum=WGS84 +units=m +no_defs"/>

    <poly id="103818853" type="building.yes" color="255,230,230" fill="1" layer="-1.00" shape="288.981267,285.096562 289.887314,285.618316 291.166046,285.797414 292.178492,285.533197 292.682635,285.239724 293.414333,284.498307 293.894606,283.336351 293.900554,282.290957 293.350550,281.014384 292.592506,280.297687 291.542417,279.859782 290.493713,279.822372 289.494937,280.142694 288.980589,280.502544 288.309519,281.301742 287.953377,282.279027 287.918603,283.034182 288.180329,284.044631 288.981267,285.096562"/>
    <poly id="103818855" type="building.yes" color="255,230,230" fill="1" layer="-1.00" shape="295.661584,293.332648 306.401023,292.781401 306.105634,289.200228 295.381149,289.551786 295.661584,293.332648"/>
    <poly id="103818856" type="building.yes" color="255,230,230" fill="1" layer="-1.00" shape="337.188366,325.303659 338.133607,319.675535 338.484412,309.843772 361.291269,318.299412 355.339759,332.024761 337.188366,325.303659"/>
    <poly id="103818857" type="building.yes" color="255,230,230" fill="1" layer="-1.00" shape="321.150971,319.069603 321.501749,309.237841 338.484412,309.843772 338.133607,319.675535 321.150971,319.069603"/>
    <poly id="103818857#1" type="historic.castle" color="128,255,128" fill="1" layer="-1.00" shape="321.150971,319.069603 321.501749,309.237841 338.484412,309.843772 338.133607,319.675535 321.150971,319.069603"/>
    <poly id="103818857#2" type="man_made.tower" color="255,230,230" fill="1" layer="-1.00" shape="321.150971,319.069603 321.501749,309.237841 338.484412,309.843772 338.133607,319.675535 321.150971,319.069603"/>
    <poly id="103818857#3" type="tourism.attraction" color="207,245,201" fill="1" layer="-2.00" shape="321.150971,319.069603 321.501749,309.237841 338.484412,309.843772 338.133607,319.675535 321.150971,319.069603"/>
    <poly id="107293629" type="landuse.grass" color="194,194,130" fill="1" layer="-3.00" shape="1180.246523,1378.711890 1209.647792,1365.237866 1199.992782,1344.313248 1170.591444,1357.787320 1180.246523,1378.711890"/>
    <poly id="107293632" type="landuse.grass" color="194,194,130" fill="1" layer="-3.00" shape="1158.250381,1352.350719 1155.874722,1346.492467 1154.499960,1343.095015 1145.322321,1321.086361 1136.556703,1324.977101 1135.084047,1321.687385 1111.340816,1327.689116 1112.961483,1341.284579 1113.466779,1345.551891 1114.044486,1350.422471 1134.456885,1347.727517 1140.903212,1352.808311 1149.183485,1354.373006 1151.937030,1355.150181 1158.250381,1352.350719"/>
    <poly id="107293633" type="landuse.grass" color="194,194,130" fill="1" layer="-3.00" shape="1200.204353,1305.388197 1223.548445,1357.104032 1227.890645,1367.115149 1246.718186,1359.235780 1244.986731,1355.080240 1262.793516,1347.264449 1257.562455,1339.101341 1247.842888,1321.511413 1238.999392,1303.741550 1219.436812,1312.451131 1212.454947,1299.575665 1200.204353,1305.388197"/>
    <poly id="107541988" type="building.yes" color="255,230,230" fill="1" layer="-1.00" shape="1144.583535,1465.944831 1151.024036,1469.434761 1152.365532,1466.980006 1154.431293,1463.116251 1152.667690,1462.263297 1147.727796,1459.750380 1144.583535,1465.944831"/>
    <poly id="112862617" type="building.yes" color="255,230,230" fill="1" layer="-1.00" shape="352.777357,339.052354 333.214981,334.761450 332.840082,338.240846 335.043468,338.419575 331.202629,357.559522 335.786703,358.657457 332.917263,371.436063 340.919820,372.478001 344.109965,372.892166 352.777357,339.052354"/>
    <poly id="112862618" type="building.yes" color="255,230,230" fill="1" layer="-1.00" shape="321.937184,325.805111 321.150971,319.069603 338.133607,319.675535 337.188366,325.303659 336.299708,329.565614 333.779707,329.475699 333.214981,334.761450 332.840082,338.240846 330.965492,337.851379 331.691765,343.850601 329.147794,343.993426 325.660336,344.224947 324.916155,335.433094 321.820097,335.456113 321.937184,325.805111"/>
    <poly id="112862620" type="building.yes" color="255,230,230" fill="1" layer="-1.00" shape="355.339759,332.024761 361.291269,318.299412 438.156770,349.429939 424.091110,384.333926 418.288712,382.024471 413.493767,392.542995 420.707088,395.937294 412.943329,413.891574 335.495400,387.245531 340.919820,372.478001 344.109965,372.892166 352.777357,339.052354 355.339759,332.024761"/>
    <poly id="112862620#1" type="historic.castle" color="128,255,128" fill="1" layer="-1.00" shape="355.339759,332.024761 361.291269,318.299412 438.156770,349.429939 424.091110,384.333926 418.288712,382.024471 413.493767,392.542995 420.707088,395.937294 412.943329,413.891574 335.495400,387.245531 340.919820,372.478001 344.109965,372.892166 352.777357,339.052354 355.339759,332.024761"/>
    <poly id="122098986" type="building.hut" color="255,230,230" fill="1" layer="-1.00" shape="1200.760580,328.989850 1198.870495,325.095638 1194.740162,327.083430 1196.630249,330.977641 1200.760580,328.989850"/>
    <poly id="122098986#1" type="tourism.information" color="207,245,201" fill="1" layer="-2.00" shape="1200.760580,328.989850 1198.870495,325.095638 1194.740162,327.083430 1196.630249,330.977641 1200.760580,328.989850"/>
    <poly id="127881969" type="building.yes" color="255,230,230" fill="1" layer="-1.00" shape="357.996241,333.999423 347.885028,370.090271 408.966034,389.867477 420.302923,360.939487 357.996241,333.999423"/>
    <poly id="131964284" type="building.yes" color="255,230,230" fill="1" layer="-1.00" shape="462.507607,667.330092 462.762888,675.103411 462.835996,677.664427 472.666323,677.759583 484.376792,677.866271 485.388286,677.846773 496.151960,677.697205 496.398757,667.494638 482.861315,667.422803 475.685065,667.389030 462.507607,667.330092"/>
    <poly id="131964286" type="building.yes" color="255,230,230" fill="1" layer="-1.00" shape="568.896078,631.908019 568.412665,639.299012 569.216332,639.394461 568.810890,646.576892 567.610493,646.400531 566.791228,656.393553 568.984517,656.193812 579.329670,655.039440 597.565277,653.010127 598.021601,633.437912 598.057941,631.982030 568.896078,631.908019"/>
    <poly id="131964289" type="building.yes" color="255,230,230" fill="1" layer="-1.00" shape="530.813620,729.124351 530.776082,733.027364 514.357562,730.917060 513.452858,731.018232 513.289821,737.119217 512.494266,752.374509 541.971747,756.319431 541.506407,730.518504 541.357258,729.868013 536.651009,729.566436 530.813620,729.124351"/>
    <poly id="131964300" type="building.yes" color="255,230,230" fill="1" layer="-1.00" shape="641.082098,807.235346 634.678566,806.850794 618.689468,806.323964 621.594202,814.280963 624.934895,814.422578 630.274548,814.757982 657.899512,816.156729 659.852710,816.315520 659.757778,808.447791 657.901148,808.437058 641.082098,807.235346"/>
    <poly id="131964302" type="building.yes" color="255,230,230" fill="1" layer="-1.00" shape="368.559747,1023.587909 369.196704,1039.328148 369.435560,1041.416768 369.885354,1045.059084 373.787167,1044.842404 373.517275,1040.550223 374.019278,1040.534772 373.899836,1036.637283 377.243289,1036.478539 376.794290,1022.936336 368.559747,1023.587909"/>
    <poly id="131964308" type="building.yes" color="255,230,230" fill="1" layer="-1.00" shape="617.104387,1098.248820 619.227824,1111.839790 625.357112,1111.558260 629.035620,1125.482895 642.151991,1124.594564 644.556004,1124.413515 643.923671,1121.498797 642.797647,1102.581916 640.000897,1102.570955 639.811044,1096.702067 617.104387,1098.248820"/>
    <poly id="131964322" type="building.yes" color="255,230,230" fill="1" layer="-1.00" shape="433.556449,323.103270 431.932176,327.116488 432.639812,330.122844 430.846763,329.424800 424.415162,346.058436 435.057623,350.198066 442.738984,328.848198 433.556449,323.103270"/>
    <poly id="131964323" type="building.yes" color="255,230,230" fill="1" layer="-1.00" shape="320.541515,796.667963 317.081658,796.132936 304.473796,794.392740 303.342641,802.817353 314.998168,803.578069 315.338686,799.963963 319.546721,800.392205 319.209768,803.906327 328.292585,804.742118 330.221253,797.903255 320.541515,796.667963"/>
    <poly id="131964324" type="building.yes" color="255,230,230" fill="1" layer="-1.00" shape="282.302725,1044.213838 282.010824,1050.198984 281.490632,1060.825602 281.384812,1062.913042 282.831676,1062.986914 283.888867,1063.002388 290.081294,1060.731678 292.290769,1060.732651 298.632570,1058.667502 302.131935,1052.162770 303.695197,1051.829230 304.565717,1044.340813 282.302725,1044.213838"/>
    <poly id="131964343" type="building.yes" color="255,230,230" fill="1" layer="-1.00" shape="448.610616,727.368019 445.818558,738.414084 445.522023,739.916293 444.878644,742.574087 459.592902,745.891440 459.887020,742.920842 460.113310,741.849942 460.286730,740.065250 460.286690,738.530205 460.928576,728.452981 448.610616,727.368019"/>
    <poly id="131964344" type="building.yes" color="255,230,230" fill="1" layer="-1.00" shape="614.913148,1162.420039 615.024007,1172.034732 613.175478,1172.458112 613.380423,1179.439891 619.105239,1178.854694 625.184285,1178.004073 627.580452,1177.822738 627.338048,1169.916366 632.037960,1169.728372 631.587524,1160.846817 614.913148,1162.420039"/>
    <poly id="131964350" type="building.yes" color="255,230,230" fill="1" layer="-1.00" shape="159.190235,820.278438 155.795072,820.346473 157.735334,837.568047 157.819933,838.271842 157.560867,846.416107 157.313983,854.438448 160.386700,854.403411 175.388141,854.715889 173.338758,833.964274 171.042049,819.488603 159.190235,820.278438"/>
    <poly id="131964358" type="building.yes" color="255,230,230" fill="1" layer="-1.00" shape="524.022996,364.164250 516.701490,380.476817 518.881851,381.299952 542.760438,391.329599 542.650189,391.125439 544.930183,385.867584 543.433865,384.979881 543.722456,384.578618 537.496338,381.408531 541.430668,372.394394 524.022996,364.164250"/>
    <poly id="131964358#1" type="historic.manor" color="128,255,128" fill="1" layer="-1.00" shape="524.022996,364.164250 516.701490,380.476817 518.881851,381.299952 542.760438,391.329599 542.650189,391.125439 544.930183,385.867584 543.433865,384.979881 543.722456,384.578618 537.496338,381.408531 541.430668,372.394394 524.022996,364.164250"/>
    <poly id="131964358#2" type="tourism.attraction" color="207,245,201" fill="1" layer="-2.00" shape="524.022996,364.164250 516.701490,380.476817 518.881851,381.299952 542.760438,391.329599 542.650189,391.125439 544.930183,385.867584 543.433865,384.979881 543.722456,384.578618 537.496338,381.408531 541.430668,372.394394 524.022996,364.164250"/>
    <poly id="131964364" type="building.yes" color="255,230,230" fill="1" layer="-1.00" shape="133.837976,1439.830639 134.986528,1443.653580 139.722652,1458.260755 144.127449,1456.893923 146.764861,1455.875633 143.777718,1446.269650 146.294891,1445.547406 144.630808,1440.582605 144.043560,1438.815276 143.270697,1436.540770 133.837976,1439.830639"/>
    <poly id="131964369" type="building.yes" color="255,230,230" fill="1" layer="-1.00" shape="561.829373,319.696731 562.276568,338.110985 572.884927,337.499896 580.066432,337.177989 580.077278,338.190616 583.803510,337.856528 583.195600,319.336416 579.085194,319.456559 575.287833,319.587887 561.829373,319.696731"/>
    <poly id="131964372" type="building.yes" color="255,230,230" fill="1" layer="-1.00" shape="163.616611,1111.203842 158.422229,1112.075333 158.797547,1115.392389 157.273982,1131.311367 156.135319,1142.149520 168.815890,1140.732992 168.142424,1129.518757 167.936492,1127.164359 167.780186,1125.835091 165.186021,1126.076281 163.616611,1111.203842"/>
    <poly id="131964379" type="building.yes" color="255,230,230" fill="1" layer="-1.00" shape="616.874975,708.861556 615.425092,714.571738 615.896897,714.744324 616.518581,714.888895 617.396525,715.098240 631.576547,718.674995 632.337789,714.475257 641.504878,716.026409 642.984600,716.279508 643.269730,714.220721 632.535245,712.457831 616.874975,708.861556"/>
    <poly id="131964386" type="building.yes" color="255,230,230" fill="1" layer="-1.00" shape="63.746758,1410.012272 65.048012,1415.486914 65.366760,1416.655119 69.013648,1430.834074 72.480485,1430.724076 120.406300,1429.151439 118.829255,1424.601319 114.346521,1411.894193 110.611686,1401.282705 105.476772,1386.650219 103.891878,1382.099825 63.746758,1410.012272"/>
    <poly id="131964387" type="building.yes" color="255,230,230" fill="1" layer="-1.00" shape="405.721893,1020.520682 406.756805,1043.327441 399.515398,1043.814203 399.703864,1050.606268 400.505603,1050.534777 412.594185,1049.687135 412.505918,1044.478183 416.507479,1044.320709 424.511107,1043.772191 423.192128,1019.486981 405.721893,1020.520682"/>
    <poly id="131964394" type="building.yes" color="255,230,230" fill="1" layer="-1.00" shape="515.730839,1045.895039 514.647950,1040.895273 510.521352,1041.482037 511.681019,1046.306568 512.800589,1050.718098 513.624074,1057.277015 534.015536,1056.058753 533.480462,1048.664746 519.990341,1049.484345 519.431985,1045.593418 515.730839,1045.895039"/>
    <poly id="131964397" type="building.yes" color="255,230,230" fill="1" layer="-1.00" shape="359.344770,316.850640 384.346332,326.385798 392.057016,302.233807 384.243232,298.973851 386.304483,293.474547 382.505962,291.881809 382.999921,290.775965 371.054136,286.044872 359.344770,316.850640"/>
    <poly id="131964398" type="building.yes" color="255,230,230" fill="1" layer="-1.00" shape="526.767774,883.863657 525.230534,883.686393 517.613901,882.168522 515.881603,890.304682 515.275566,892.574481 542.394924,898.904653 542.854558,896.785356 545.131034,888.112463 537.756313,886.402984 531.648401,884.983480 526.767774,883.863657"/>
    <poly id="131964403" type="building.yes" color="255,230,230" fill="1" layer="-1.00" shape="473.722298,296.817406 471.936664,299.423294 465.263649,296.037110 459.992739,307.372877 464.174105,309.435394 468.823343,311.781582 474.369378,315.127536 476.329736,316.187517 480.097402,309.425466 480.498304,309.829102 484.063658,303.905215 484.190539,298.815183 478.224540,298.891388 473.722298,296.817406"/>
    <poly id="131964407" type="building.yes" color="255,230,230" fill="1" layer="-1.00" shape="170.250723,714.454839 170.278864,715.423584 170.863045,719.916049 172.495297,729.295719 177.693959,729.191891 176.699763,721.915060 177.671514,720.592649 177.635750,720.057447 177.227100,715.037314 174.584223,714.442514 170.250723,714.454839"/>
    <poly id="131964409" type="building.yes" color="255,230,230" fill="1" layer="-1.00" shape="353.708200,621.922428 351.020350,645.641896 351.738331,645.723136 354.878710,645.990935 364.541545,647.047685 364.914961,644.269015 362.833722,644.183615 362.917048,643.385698 359.306729,643.112247 360.793445,622.531232 353.708200,621.922428"/>
    <poly id="131964410" type="building.yes" color="255,230,230" fill="1" layer="-1.00" shape="625.337026,341.520453 625.265615,348.125270 629.578974,348.246003 629.805570,354.405403 625.717584,354.337216 626.149459,367.033454 630.555131,367.201981 633.842867,367.297198 636.175825,367.358304 637.968388,367.411227 639.359214,341.643235 625.337026,341.520453"/>
    <poly id="131964412" type="building.yes" color="255,230,230" fill="1" layer="-1.00" shape="488.335104,1042.714146 488.469416,1044.876904 492.058053,1044.215296 493.374835,1051.003173 489.176849,1051.175831 489.776644,1056.759009 494.362425,1056.477842 506.744346,1055.095804 504.204579,1040.210818 503.926883,1039.210907 488.335104,1042.714146"/>
    <poly id="131964415" type="building.yes" color="255,230,230" fill="1" layer="-1.00" shape="510.492728,427.730216 522.259633,430.219388 524.694509,418.648908 527.887011,416.582711 543.220764,422.102537 548.677732,412.141669 539.242986,408.856982 539.539114,408.244642 522.308870,402.290026 514.812278,406.171387 511.282033,423.620459 510.492728,427.730216"/>
    <poly id="131964419" type="building.yes" color="255,230,230" fill="1" layer="-1.00" shape="312.127257,1166.179304 316.222979,1176.992898 319.013865,1176.069135 331.874179,1171.811736 331.690844,1171.460365 330.975489,1171.746292 330.472726,1170.905210 329.026954,1167.727909 329.723884,1167.519188 326.595810,1160.766824 312.127257,1166.179304"/>
    <poly id="131964421" type="building.yes" color="255,230,230" fill="1" layer="-1.00" shape="477.344226,1094.001484 472.039642,1094.446092 471.135783,1094.525049 468.400733,1094.761085 469.255300,1109.007452 472.358522,1108.773441 493.741608,1107.646090 493.148592,1099.460250 492.475074,1092.650851 487.564918,1093.020544 477.344226,1094.001484"/>
    <poly id="131964428" type="building.yes" color="255,230,230" fill="1" layer="-1.00" shape="467.773611,1057.908741 460.465463,1058.070467 460.728248,1067.167759 472.038512,1067.271309 485.373227,1067.291448 489.651725,1067.277392 492.900583,1066.915109 492.273129,1061.887119 478.859712,1062.754037 478.471476,1057.389763 467.773611,1057.908741"/>
    <poly id="131964429" type="building.yes" color="255,230,230" fill="1" layer="-1.00" shape="298.459929,923.410832 298.399691,924.220697 298.546013,929.342723 298.694359,931.772937 311.158946,931.372318 311.269365,932.889052 314.192473,933.093471 314.194884,931.269304 314.056748,928.772713 314.111487,925.482114 298.459929,923.410832"/>
    <poly id="131964435" type="building.yes" color="255,230,230" fill="1" layer="-1.00" shape="682.652961,1045.207363 679.145096,1046.238828 684.462674,1061.434551 684.880050,1063.129124 687.477335,1063.021739 687.687284,1064.820133 694.978118,1063.389968 692.644839,1056.988393 690.912879,1052.176732 687.286420,1043.593215 682.652961,1045.207363"/>
    <poly id="131964447" type="building.yes" color="255,230,230" fill="1" layer="-1.00" shape="464.179807,1016.367576 464.662591,1030.055611 472.594231,1029.549076 472.605478,1030.550594 474.215886,1030.652596 475.221085,1030.588381 475.150312,1027.304417 481.146350,1026.806637 480.192091,1015.571181 470.956394,1015.953276 464.179807,1016.367576"/>
    <poly id="131964454" type="building.yes" color="255,230,230" fill="1" layer="-1.00" shape="184.462372,304.906211 192.365956,314.220279 205.293500,305.704623 204.309374,303.856405 213.383153,297.494775 206.208100,288.406882 187.533526,300.966778 188.243936,302.360295 184.462372,304.906211"/>
    <poly id="131964465" type="building.yes" color="255,230,230" fill="1" layer="-1.00" shape="405.906874,841.505652 400.915535,869.825881 417.088679,873.751408 420.431139,852.991920 421.511579,846.211785 422.485073,841.329951 422.228095,836.237336 420.137904,836.184964 419.431453,841.487901 410.223351,841.748728 405.906874,841.505652"/>
    <poly id="131964472" type="building.yes" color="255,230,230" fill="1" layer="-1.00" shape="300.364156,977.861515 300.612199,982.987171 299.043474,983.253777 298.129797,983.388027 298.518019,993.368526 301.404557,993.059956 301.768525,996.254261 319.817980,994.139712 318.995474,977.447370 317.494502,977.571784 300.364156,977.861515"/>
    <poly id="131964476" type="building.yes" color="255,230,230" fill="1" layer="-1.00" shape="119.942468,842.260585 120.052230,857.203311 157.532225,857.327209 157.409583,855.932402 157.313983,854.438448 157.560867,846.416107 144.936263,846.466507 144.961580,842.240492 143.354592,842.261058 141.972561,842.345262 119.942468,842.260585"/>
    <poly id="131964480" type="building.yes" color="255,230,230" fill="1" layer="-1.00" shape="682.727538,759.668880 682.583697,769.174359 690.307404,769.672883 713.952471,771.719387 713.632689,760.717902 710.397553,760.691250 710.322537,755.994437 706.830298,755.268937 687.010914,752.947628 686.534106,760.149759 682.727538,759.668880"/>
    <poly id="131964481" type="building.yes" color="255,230,230" fill="1" layer="-1.00" shape="360.793445,622.531232 359.306729,643.112247 362.917048,643.385698 362.833722,644.183615 364.914961,644.269015 365.343024,638.422213 369.487872,638.648003 370.738426,628.636999 371.312889,623.518449 367.808258,623.137531 360.793445,622.531232"/>
    <poly id="131964482" type="building.yes" color="255,230,230" fill="1" layer="-1.00" shape="131.172540,659.134944 131.114316,667.141760 134.521454,667.619183 134.449911,672.922523 130.842477,672.348972 129.910047,679.601597 152.688660,684.640653 153.530450,666.305827 152.314796,666.117877 152.604700,662.602076 131.172540,659.134944"/>
    <poly id="131964485" type="building.yes" color="255,230,230" fill="1" layer="-1.00" shape="353.655844,843.166790 353.085173,847.740426 352.063179,861.886406 361.115088,863.366310 362.458364,848.341917 364.725028,830.057927 366.694667,830.194966 366.885551,826.163951 359.223622,825.912740 358.225113,843.352112 353.655844,843.166790"/>
    <poly id="131964491" type="building.yes" color="255,230,230" fill="1" layer="-1.00" shape="667.587928,883.577872 667.949638,885.515171 669.271511,891.279910 672.774181,890.615325 672.981249,892.713950 669.785872,893.111429 671.072424,903.591285 677.801480,902.318986 674.573258,882.370345 673.037376,882.593540 667.587928,883.577872"/>
    <poly id="131964496" type="building.yes" color="255,230,230" fill="1" layer="-1.00" shape="239.656537,433.081345 240.276383,439.210238 245.893332,438.809911 255.453174,438.149781 263.569477,437.538286 263.240500,432.042679 262.932910,432.098448 262.819782,431.315769 239.656537,433.081345"/>
    <poly id="131964506" type="amenity.cafe" color="237,199,199" fill="1" layer="-1.00" shape="169.083710,1335.992971 174.638426,1342.587086 181.240623,1335.848142 184.235359,1334.698003 187.061890,1337.824407 187.951451,1336.387836 194.372191,1332.979477 195.406107,1325.519128 196.069237,1325.598399 194.794691,1323.550710 192.247183,1319.410894 181.152108,1327.346644 169.083710,1335.992971"/>
    <poly id="131964506#1" type="building.commercial" color="255,230,230" fill="1" layer="-1.00" shape="169.083710,1335.992971 174.638426,1342.587086 181.240623,1335.848142 184.235359,1334.698003 187.061890,1337.824407 187.951451,1336.387836 194.372191,1332.979477 195.406107,1325.519128 196.069237,1325.598399 194.794691,1323.550710 192.247183,1319.410894 181.152108,1327.346644 169.083710,1335.992971"/>
    <poly id="131964513" type="building.yes" color="255,230,230" fill="1" layer="-1.00" shape="421.217557,695.099665 413.724854,694.932305 413.362600,704.641310 425.881955,706.890234 426.596184,703.345088 430.207260,703.596360 430.398780,702.401859 432.743005,702.363189 433.435435,696.136502 423.806943,695.436819 421.217557,695.099665"/>
    <poly id="131964517" type="building.yes" color="255,230,230" fill="1" layer="-1.00" shape="670.193060,453.290537 667.715273,465.615846 666.561899,472.893909 669.762190,473.241865 671.193143,473.326371 672.651050,467.394014 674.233362,467.628536 676.561446,455.765066 676.761293,455.216032 670.193060,453.290537"/>
    <poly id="131964522" type="building.yes" color="255,230,230" fill="1" layer="-1.00" shape="672.674012,1184.317615 673.215015,1191.978824 673.900955,1191.858736 674.437027,1191.766662 676.093388,1191.458791 680.463282,1190.858590 686.718053,1189.914197 692.195648,1189.231242 694.156392,1188.956502 693.973587,1182.453819 691.641210,1182.604038 672.674012,1184.317615"/>
    <poly id="131964538" type="building.yes" color="255,230,230" fill="1" layer="-1.00" shape="180.293959,1430.263876 182.319038,1436.309419 186.687321,1448.267249 190.009852,1447.151056 189.347735,1445.725879 205.988234,1440.902325 201.900177,1429.655255 201.308172,1429.778743 195.880783,1430.819849 194.017153,1425.959150 180.293959,1430.263876"/>
    <poly id="131964593" type="building.yes" color="255,230,230" fill="1" layer="-1.00" shape="637.717653,853.366751 635.119545,854.152668 633.860213,854.530361 638.038969,876.826631 638.486882,878.544537 665.990100,873.476217 664.877289,868.219510 656.187080,869.555220 654.554176,860.653658 662.184850,858.490307 659.394368,846.899973 637.717653,853.366751"/>
    <poly id="131964602" type="building.yes" color="255,230,230" fill="1" layer="-1.00" shape="215.349168,823.504786 213.088499,824.058193 212.951406,821.750744 205.960786,822.669382 206.270537,826.506904 211.087061,825.911170 212.045926,829.782968 220.152412,828.114372 220.544478,828.106109 220.269606,822.412208 215.349168,823.504786"/>
    <poly id="131964604" type="building.yes" color="255,230,230" fill="1" layer="-1.00" shape="226.639986,1033.062287 223.842424,1033.073730 216.511987,1033.201575 216.878266,1037.430439 221.970295,1037.233873 222.010700,1038.736984 225.710931,1038.679875 236.829056,1038.898504 237.208281,1032.660634 233.880090,1032.831120 226.639986,1033.062287"/>
    <poly id="131964605" type="building.yes" color="255,230,230" fill="1" layer="-1.00" shape="630.900704,727.282702 630.537929,751.908347 608.756347,750.117843 605.400866,765.960212 620.309458,767.783217 636.197205,768.517769 636.360526,765.920700 636.340308,752.671857 636.980884,745.709173 638.235281,727.489166 630.900704,727.282702"/>
    <poly id="131964606" type="building.yes" color="255,230,230" fill="1" layer="-1.00" shape="596.355673,1234.894146 597.946547,1243.215776 594.356021,1243.932867 595.689308,1248.719133 599.449698,1263.859146 622.876071,1259.256873 619.335447,1245.203678 618.462428,1240.912166 614.083164,1241.556567 613.106638,1231.610602 596.355673,1234.894146"/>
    <poly id="131964612" type="building.yes" color="255,230,230" fill="1" layer="-1.00" shape="528.334715,689.714201 528.611741,700.825360 529.509992,701.124405 529.717458,724.713661 529.676527,729.150480 530.813620,729.124351 536.651009,729.566436 536.700961,725.096568 541.515339,724.345273 541.772893,698.926120 541.856531,690.441867 528.334715,689.714201"/>
    <poly id="131964621" type="building.yes" color="255,230,230" fill="1" layer="-1.00" shape="611.465948,509.568414 611.556436,515.589470 612.873166,515.580894 613.829510,515.570567 614.237930,515.763135 631.271953,516.672065 632.345572,516.888402 632.401707,514.220762 629.989467,513.967721 629.945790,510.584611 611.465948,509.568414"/>
    <poly id="131964630" type="building.yes" color="255,230,230" fill="1" layer="-1.00" shape="548.933282,326.877992 546.904339,326.861148 546.946474,323.926047 541.689713,323.671568 541.484858,325.677606 540.877076,341.818354 547.785401,344.756965 552.606690,346.453076 553.917147,345.743481 553.917427,326.866900 548.933282,326.877992"/>
    <poly id="131964639" type="building.yes" color="255,230,230" fill="1" layer="-1.00" shape="240.157496,722.420753 237.444392,722.257237 237.225164,726.865660 238.597712,727.048100 238.389886,728.041799 254.548234,729.318960 254.540934,723.812578 254.542423,723.111852 251.360873,723.120719 248.013896,722.934587 240.157496,722.420753"/>
    <poly id="131964649" type="building.yes" color="255,230,230" fill="1" layer="-1.00" shape="369.404355,695.875385 368.986488,697.484501 367.656180,708.193439 368.768503,708.422237 366.316843,723.985491 373.858798,725.845326 374.277812,725.960392 376.066737,708.549234 371.365440,707.669537 372.791852,696.463472 369.404355,695.875385"/>
    <poly id="131964651" type="building.yes" color="255,230,230" fill="1" layer="-1.00" shape="606.403115,312.401213 604.593979,312.592426 604.677194,314.430778 604.648700,317.421985 603.653196,317.430917 603.928762,323.536446 609.901717,322.826569 608.759505,317.290749 607.846913,317.391630 606.403115,312.401213"/>
    <poly id="131964675" type="building.yes" color="255,230,230" fill="1" layer="-1.00" shape="468.058581,604.691622 467.666220,606.902313 466.126933,617.314569 465.929241,619.120641 478.241719,621.462383 484.843354,622.009565 485.878334,621.990904 487.386672,608.496335 487.473801,607.153502 468.058581,604.691622"/>
    <poly id="131964677" type="building.yes" color="255,230,230" fill="1" layer="-1.00" shape="663.038077,393.446149 661.337619,398.491082 668.815261,401.283325 673.516109,388.147575 674.039606,385.997195 674.275125,385.327076 669.910072,383.802900 666.647580,382.562842 663.038077,393.446149"/>
    <poly id="131964678" type="building.yes" color="255,230,230" fill="1" layer="-1.00" shape="520.401067,613.034591 520.435503,613.825590 519.903118,625.441767 519.788320,627.339787 526.723499,627.542974 527.435424,608.925397 526.758949,608.778879 526.111108,608.488778 522.611699,608.619642 522.337883,613.214996 520.401067,613.034591"/>
    <poly id="131964687" type="building.yes" color="255,230,230" fill="1" layer="-1.00" shape="550.483788,1241.642355 549.644930,1241.656881 550.124852,1255.856523 566.143419,1256.184088 566.836777,1256.075378 568.443669,1256.054924 567.856795,1249.893768 566.729209,1249.875729 565.938491,1249.858602 565.484295,1241.299505 550.483788,1241.642355"/>
    <poly id="131964689" type="building.yes" color="255,230,230" fill="1" layer="-1.00" shape="654.431791,911.216857 654.271709,926.439252 655.874320,926.541020 661.228735,926.899232 661.238596,927.500255 664.335337,927.889018 667.533129,928.081171 669.159612,928.172672 669.784301,908.940161 659.677124,910.681286 654.431791,911.216857"/>