<?xml version="1.0" encoding="UTF-8"?>

<!-- generated on Tue Sep 17 09:58:33 2019 by Eclipse SUMO duarouter Version 1.2.0
<configuration xmlns:xsi="http://www.w3.org/2001/XMLSchema-instance" xsi:noNamespaceSchemaLocation="http://sumo.dlr.de/xsd/duarouterConfiguration.xsd">

    <input>
        <net-file value="/home/werer/sumo/tools/2019-09-17-09-58-25/osm.net.xml"/>
        <route-files value="/home/werer/sumo/tools/2019-09-17-09-58-25/osm.passenger.trips.xml"/>
    </input>

    <output>
        <output-file value="/home/werer/sumo/tools/2019-09-17-09-58-25/osm.passenger.trips.xml.tmp"/>
        <write-trips value="true"/>
    </output>

    <time>
        <begin value="0"/>
        <end value="3600.0"/>
    </time>

    <report>
        <no-warnings value="true"/>
        <ignore-errors value="true"/>
        <no-step-log value="true"/>
    </report>

</configuration>
-->

<routes xmlns:xsi="http://www.w3.org/2001/XMLSchema-instance" xsi:noNamespaceSchemaLocation="http://sumo.dlr.de/xsd/routes_file.xsd">
    <vType id="veh_passenger" vClass="passenger"/>
    <trip id="veh0" type="veh_passenger" depart="0.00" departLane="best" departSpeed="max" from="23543754" to="-27380645"/>
    <trip id="veh1" type="veh_passenger" depart="0.28" departLane="best" departSpeed="max" from="-30267383" to="225545134#6"/>
    <trip id="veh3" type="veh_passenger" depart="0.84" departLane="best" departSpeed="max" from="-30602290" to="-27380645"/>
    <trip id="veh4" type="veh_passenger" depart="1.12" departLane="best" departSpeed="max" from="-132652453#3" to="193476777#1"/>
    <trip id="veh5" type="veh_passenger" depart="1.40" departLane="best" departSpeed="max" from="27198523" to="30130347#2"/>
    <trip id="veh6" type="veh_passenger" depart="1.68" departLane="best" departSpeed="max" from="-30137895" to="30137832#1"/>
    <trip id="veh7" type="veh_passenger" depart="1.97" departLane="best" departSpeed="max" from="29995114" to="-23543754"/>
    <trip id="veh8" type="veh_passenger" depart="2.25" departLane="best" from="29994702#2" to="30267450"/>
    <trip id="veh9" type="veh_passenger" depart="2.53" departLane="best" departSpeed="max" from="-30267582" to="132652453#3"/>
    <trip id="veh12" type="veh_passenger" depart="3.37" departLane="best" departSpeed="max" from="30001485" to="30137885"/>
    <trip id="veh13" type="veh_passenger" depart="3.65" departLane="best" departSpeed="max" from="29995114" to="30267582"/>
    <trip id="veh15" type="veh_passenger" depart="4.21" departLane="best" departSpeed="max" from="-30601243" to="30130347#2"/>
    <trip id="veh16" type="veh_passenger" depart="4.49" departLane="best" departSpeed="max" from="29995114" to="30137895"/>
    <trip id="veh17" type="veh_passenger" depart="4.77" departLane="best" departSpeed="max" from="30015999" to="30137832#1"/>
    <trip id="veh18" type="veh_passenger" depart="5.05" departLane="best" departSpeed="max" from="27198558" to="-29495319#0"/>
    <trip id="veh19" type="veh_passenger" depart="5.34" departLane="best" departSpeed="max" from="-30137895" to="23543762#1"/>
    <trip id="veh22" type="veh_passenger" depart="6.18" departLane="best" departSpeed="max" from="23543754" to="27380646#2"/>
    <trip id="veh23" type="veh_passenger" depart="6.46" departLane="best" departSpeed="max" from="-30267630" to="225545134#6"/>
    <trip id="veh25" type="veh_passenger" depart="7.02" departLane="best" departSpeed="max" from="27198523" to="30137885"/>
    <trip id="veh28" type="veh_passenger" depart="7.86" departLane="best" departSpeed="max" from="511316582#0" to="30137895"/>
    <trip id="veh29" type="veh_passenger" depart="8.14" departLane="best" departSpeed="max" from="-382403297" to="30267383"/>
    <trip id="veh30" type="veh_passenger" depart="8.42" departLane="best" departSpeed="max" from="30001485" to="30601243"/>
    <trip id="veh31" type="veh_passenger" depart="8.71" departLane="best" departSpeed="max" from="-30137895" to="-27380645"/>
    <trip id="veh32" type="veh_passenger" depart="8.99" departLane="best" departSpeed="max" from="-30267450" to="23543758#1"/>
    <trip id="veh34" type="veh_passenger" depart="9.55" departLane="best" departSpeed="max" from="30015999" to="27196925"/>
    <trip id="veh35" type="veh_passenger" depart="9.83" departLane="best" departSpeed="max" from="27198523" to="29994275"/>
    <trip id="veh37" type="veh_passenger" depart="10.39" departLane="best" departSpeed="max" from="-30137925" to="22635975#2"/>
    <trip id="veh39" type="veh_passenger" depart="10.95" departLane="best" from="-617449524" to="30603313"/>
    <trip id="veh40" type="veh_passenger" depart="11.23" departLane="best" departSpeed="max" from="-30602290" to="225545134#6"/>
    <trip id="veh43" type="veh_passenger" depart="12.07" departLane="best" departSpeed="max" from="-29994275" to="30137895"/>
    <trip id="veh46" type="veh_passenger" depart="12.92" departLane="best" departSpeed="max" from="511316582#0" to="30130347#2"/>
    <trip id="veh47" type="veh_passenger" depart="13.20" departLane="best" departSpeed="max" from="48741591" to="30602325#1"/>
    <trip id="veh48" type="veh_passenger" depart="13.48" departLane="best" departSpeed="max" from="-132652453#3" to="30267582"/>
    <trip id="veh49" type="veh_passenger" depart="13.76" departLane="best" departSpeed="max" from="27198540#0" to="30130347#2"/>
    <trip id="veh50" type="veh_passenger" depart="14.04" departLane="best" departSpeed="max" from="-29994275" to="30001411#1"/>
    <trip id="veh52" type="veh_passenger" depart="14.60" departLane="best" departSpeed="max" from="30015999" to="23543758#1"/>
    <trip id="veh53" type="veh_passenger" depart="14.88" departLane="best" departSpeed="max" from="-30602388" to="18821052#0"/>
    <trip id="veh54" type="veh_passenger" depart="15.16" departLane="best" departSpeed="max" from="-30267450" to="30137895"/>
    <trip id="veh55" type="veh_passenger" depart="15.44" departLane="best" departSpeed="max" from="141046371#0" to="132652453#3"/>
    <trip id="veh56" type="veh_passenger" depart="15.73" departLane="best" departSpeed="max" from="29495319#0" to="30130347#2"/>
    <trip id="veh59" type="veh_passenger" depart="16.57" departLane="best" departSpeed="max" from="-132652453#3" to="511308504#1"/>
    <trip id="veh60" type="veh_passenger" depart="16.85" departLane="best" departSpeed="max" from="30015999" to="30602312#1"/>
    <trip id="veh61" type="veh_passenger" depart="17.13" departLane="best" departSpeed="max" from="-30267450" to="-29495319#0"/>
    <trip id="veh65" type="veh_passenger" depart="18.25" departLane="best" departSpeed="max" from="29495319#0" to="-511316582#0"/>
    <trip id="veh66" type="veh_passenger" depart="18.53" departLane="best" departSpeed="max" from="-30602325#1" to="30130347#2"/>
    <trip id="veh67" type="veh_passenger" depart="18.81" departLane="best" departSpeed="max" from="-30602290" to="225545134#6"/>
    <trip id="veh68" type="veh_passenger" depart="19.09" departLane="best" departSpeed="max" from="-382403297" to="30267582"/>
    <trip id="veh69" type="veh_passenger" depart="19.38" departLane="best" departSpeed="max" from="-30137885" to="27196925"/>
    <trip id="veh70" type="veh_passenger" depart="19.66" departLane="best" departSpeed="max" from="511316582#0" to="30137925"/>
    <trip id="veh72" type="veh_passenger" depart="20.22" departLane="best" departSpeed="max" from="-29994275" to="225545134#6"/>
    <trip id="veh73" type="veh_passenger" depart="20.50" departLane="best" departSpeed="max" from="-30267582" to="30137832#1"/>
    <trip id="veh74" type="veh_passenger" depart="20.78" departLane="best" departSpeed="max" from="-30137895" to="225545134#6"/>
    <trip id="veh75" type="veh_passenger" depart="21.06" departLane="best" departSpeed="max" from="-30137895" to="30603313"/>
    <trip id="veh77" type="veh_passenger" depart="21.62" departLane="best" departSpeed="max" from="-30137895" to="30267383"/>
    <trip id="veh78" type="veh_passenger" depart="21.90" departLane="best" departSpeed="max" from="-30137895" to="-511316582#0"/>
    <trip id="veh79" type="veh_passenger" depart="22.18" departLane="best" departSpeed="max" from="41865752#0" to="30130347#2"/>
    <trip id="veh80" type="veh_passenger" depart="22.46" departLane="best" departSpeed="max" from="29995114" to="193476777#1"/>
    <trip id="veh84" type="veh_passenger" depart="23.59" departLane="best" departSpeed="max" from="511316582#0" to="-41865752#0"/>
    <trip id="veh86" type="veh_passenger" depart="24.15" departLane="best" departSpeed="max" from="30015999" to="22635975#2"/>
    <trip id="veh88" type="veh_passenger" depart="24.71" departLane="best" departSpeed="max" from="-30602290" to="23543762#1"/>
    <trip id="veh89" type="veh_passenger" depart="24.99" departLane="best" departSpeed="max" from="-30137925" to="511308504#1"/>
    <trip id="veh90" type="veh_passenger" depart="25.27" departLane="best" departSpeed="max" from="-382403297" to="-29495319#0"/>
    <trip id="veh91" type="veh_passenger" depart="25.55" departLane="best" departSpeed="max" from="48741591" to="511308504#1"/>
    <trip id="veh92" type="veh_passenger" depart="25.83" departLane="best" departSpeed="max" from="30001485" to="18821052#0"/>
    <trip id="veh93" type="veh_passenger" depart="26.12" departLane="best" departSpeed="max" from="-30602388" to="225545134#6"/>
    <trip id="veh94" type="veh_passenger" depart="26.40" departLane="best" departSpeed="max" from="-30602290" to="-29495319#0"/>
    <trip id="veh95" type="veh_passenger" depart="26.68" departLane="best" departSpeed="max" from="-30601243" to="96107123#2"/>
    <trip id="veh96" type="veh_passenger" depart="26.96" departLane="best" departSpeed="max" from="-30137925" to="30601243"/>
    <trip id="veh97" type="veh_passenger" depart="27.24" departLane="best" departSpeed="max" from="-30602325#1" to="29994751"/>
    <trip id="veh98" type="veh_passenger" depart="27.52" departLane="best" departSpeed="max" from="48741591" to="96107123#2"/>
    <trip id="veh99" type="veh_passenger" depart="27.80" departLane="best" departSpeed="max" from="-382403297" to="30267582"/>
    <trip id="veh100" type="veh_passenger" depart="28.08" departLane="best" departSpeed="max" from="-29994751" to="27196925"/>
    <trip id="veh101" type="veh_passenger" depart="28.36" departLane="best" departSpeed="max" from="48741591" to="30137832#1"/>
    <trip id="veh102" type="veh_passenger" depart="28.64" departLane="best" departSpeed="max" from="-382403297" to="30267630"/>
    <trip id="veh105" type="veh_passenger" depart="29.48" departLane="best" from="-27789937#1" to="193476777#1"/>
    <trip id="veh106" type="veh_passenger" depart="29.77" departLane="best" departSpeed="max" from="141046371#0" to="30267383"/>
    <trip id="veh107" type="veh_passenger" depart="30.05" departLane="best" departSpeed="max" from="-30137895" to="-511316582#0"/>
    <trip id="veh108" type="veh_passenger" depart="30.33" departLane="best" departSpeed="max" from="30130339#0" to="22635975#2"/>
    <trip id="veh109" type="veh_passenger" depart="30.61" departLane="best" departSpeed="max" from="141046371#0" to="30137895"/>
    <trip id="veh111" type="veh_passenger" depart="31.17" departLane="best" departSpeed="max" from="-30137885" to="30267582"/>
    <trip id="veh112" type="veh_passenger" depart="31.45" departLane="best" departSpeed="max" from="-30137895" to="29994275"/>
    <trip id="veh113" type="veh_passenger" depart="31.73" departLane="best" departSpeed="max" from="27198540#0" to="27196925"/>
    <trip id="veh114" type="veh_passenger" depart="32.01" departLane="best" departSpeed="max" from="511316582#0" to="96107123#2"/>
    <trip id="veh117" type="veh_passenger" depart="32.85" departLane="best" departSpeed="max" from="30015999" to="30602359#1"/>
    <trip id="veh118" type="veh_passenger" depart="33.14" departLane="best" departSpeed="max" from="-30267630" to="132652453#3"/>
    <trip id="veh119" type="veh_passenger" depart="33.42" departLane="best" departSpeed="max" from="30001485" to="30267450"/>
    <trip id="veh120" type="veh_passenger" depart="33.70" departLane="best" from="18821048#2" to="96107123#2"/>
    <trip id="veh121" type="veh_passenger" depart="33.98" departLane="best" departSpeed="max" from="27198523" to="-23543754"/>
    <trip id="veh122" type="veh_passenger" depart="34.26" departLane="best" departSpeed="max" from="29995114" to="27196925"/>
    <trip id="veh124" type="veh_passenger" depart="34.82" departLane="best" departSpeed="max" from="-29994751" to="-511316582#0"/>
    <trip id="veh125" type="veh_passenger" depart="35.10" departLane="best" from="-29994223#5" to="30130347#2"/>
    <trip id="veh126" type="veh_passenger" depart="35.38" departLane="best" departSpeed="max" from="-30267383" to="30137885"/>
    <trip id="veh127" type="veh_passenger" depart="35.66" departLane="best" departSpeed="max" from="27198558" to="193476777#1"/>
    <trip id="veh128" type="veh_passenger" depart="35.94" departLane="best" departSpeed="max" from="-30602388" to="30603313"/>
    <trip id="veh129" type="veh_passenger" depart="36.22" departLane="best" departSpeed="max" from="30001485" to="-41865752#0"/>
    <trip id="veh130" type="veh_passenger" depart="36.51" departLane="best" departSpeed="max" from="-30602290" to="23543762#1"/>
    <trip id="veh131" type="veh_passenger" depart="36.79" departLane="best" departSpeed="max" from="-132652453#3" to="30267803"/>
    <trip id="veh133" type="veh_passenger" depart="37.35" departLane="best" departSpeed="max" from="-30602312#1" to="-23543754"/>
    <trip id="veh135" type="veh_passenger" depart="37.91" departLane="best" departSpeed="max" from="30130339#0" to="30130347#2"/>
    <trip id="veh136" type="veh_passenger" depart="38.19" departLane="best" departSpeed="max" from="30001485" to="30137832#1"/>
    <trip id="veh137" type="veh_passenger" depart="38.47" departLane="best" departSpeed="max" from="-29994751" to="-511316582#0"/>
    <trip id="veh138" type="veh_passenger" depart="38.75" departLane="best" departSpeed="max" from="-30267450" to="30603313"/>
    <trip id="veh140" type="veh_passenger" depart="39.31" departLane="best" departSpeed="max" from="30130339#0" to="225545134#6"/>
    <trip id="veh141" type="veh_passenger" depart="39.59" departLane="best" departSpeed="max" from="-30137925" to="-41865752#0"/>
    <trip id="veh143" type="veh_passenger" depart="40.16" departLane="best" departSpeed="max" from="-30602290" to="30137895"/>
    <trip id="veh144" type="veh_passenger" depart="40.44" departLane="best" departSpeed="max" from="-29994751" to="511308504#1"/>
    <trip id="veh146" type="veh_passenger" depart="41.00" departLane="best" departSpeed="max" from="29995114" to="30602359#1"/>
    <trip id="veh147" type="veh_passenger" depart="41.28" departLane="best" departSpeed="max" from="-132652453#3" to="30267630"/>
    <trip id="veh148" type="veh_passenger" depart="41.56" departLane="best" departSpeed="max" from="-30267582" to="511308504#1"/>
    <trip id="veh150" type="veh_passenger" depart="42.12" departLane="best" departSpeed="max" from="29995114" to="23543758#1"/>
    <trip id="veh152" type="veh_passenger" depart="42.68" departLane="best" departSpeed="max" from="30015999" to="30602325#1"/>
    <trip id="veh153" type="veh_passenger" depart="42.96" departLane="best" departSpeed="max" from="-30137895" to="30602290"/>
    <trip id="veh154" type="veh_passenger" depart="43.24" departLane="best" departSpeed="max" from="-30602325#1" to="27196925"/>
    <trip id="veh155" type="veh_passenger" depart="43.53" departLane="best" departSpeed="max" from="-132652453#3" to="193476777#1"/>
    <trip id="veh156" type="veh_passenger" depart="43.81" departLane="best" departSpeed="max" from="-30267582" to="30602325#1"/>
    <trip id="veh157" type="veh_passenger" depart="44.09" departLane="best" departSpeed="max" from="48741591" to="23543762#1"/>
    <trip id="veh158" type="veh_passenger" depart="44.37" departLane="best" departSpeed="max" from="27198523" to="29994275"/>
    <trip id="veh159" type="veh_passenger" depart="44.65" departLane="best" departSpeed="max" from="511316582#0" to="30130347#2"/>
    <trip id="veh160" type="veh_passenger" depart="44.93" departLane="best" departSpeed="max" from="41865752#0" to="-511316582#0"/>
    <trip id="veh161" type="veh_passenger" depart="45.21" departLane="best" departSpeed="max" from="48741591" to="18821052#0"/>
    <trip id="veh162" type="veh_passenger" depart="45.49" departLane="best" departSpeed="max" from="48741591" to="23543758#1"/>
    <trip id="veh163" type="veh_passenger" depart="45.77" departLane="best" departSpeed="max" from="-29994275" to="29994853#1"/>
    <trip id="veh166" type="veh_passenger" depart="46.61" departLane="best" departSpeed="max" from="-30601243" to="30137832#1"/>
    <trip id="veh167" type="veh_passenger" depart="46.89" departLane="best" departSpeed="max" from="-30137925" to="30267582"/>
    <trip id="veh168" type="veh_passenger" depart="47.18" departLane="best" departSpeed="max" from="-132652453#3" to="511308504#1"/>
    <trip id="veh169" type="veh_passenger" depart="47.46" departLane="best" departSpeed="max" from="-382403297" to="30267582"/>
    <trip id="veh172" type="veh_passenger" depart="48.30" departLane="best" departSpeed="max" from="-30267450" to="30602325#1"/>
    <trip id="veh173" type="veh_passenger" depart="48.58" departLane="best" departSpeed="max" from="27198558" to="27196925"/>
    <trip id="veh174" type="veh_passenger" depart="48.86" departLane="best" departSpeed="max" from="-30267450" to="29994275"/>
    <trip id="veh175" type="veh_passenger" depart="49.14" departLane="best" departSpeed="max" from="-30602290" to="27196925"/>
    <trip id="veh176" type="veh_passenger" depart="49.42" departLane="best" departSpeed="max" from="-29994275" to="29994751"/>
    <trip id="veh177" type="veh_passenger" depart="49.70" departLane="best" departSpeed="max" from="41865752#0" to="30267383"/>
    <trip id="veh178" type="veh_passenger" depart="49.98" departLane="best" departSpeed="max" from="30130339#0" to="30137885"/>
    <trip id="veh179" type="veh_passenger" depart="50.26" departLane="best" departSpeed="max" from="-30267450" to="30130347#2"/>
    <trip id="veh181" type="veh_passenger" depart="50.83" departLane="best" departSpeed="max" from="-30602312#1" to="225545134#6"/>
    <trip id="veh182" type="veh_passenger" depart="51.11" departLane="best" departSpeed="max" from="-30602325#1" to="30603313"/>
    <trip id="veh186" type="veh_passenger" depart="52.23" departLane="best" departSpeed="max" from="29995114" to="30267630"/>
    <trip id="veh187" type="veh_passenger" depart="52.51" departLane="best" departSpeed="max" from="27198540#0" to="225545134#6"/>
    <trip id="veh188" type="veh_passenger" depart="52.79" departLane="best" departSpeed="max" from="-30137885" to="-27380645"/>
    <trip id="veh191" type="veh_passenger" depart="53.63" departLane="best" departSpeed="max" from="-30602290" to="30137895"/>
    <trip id="veh192" type="veh_passenger" depart="53.92" departLane="best" departSpeed="max" from="-30137885" to="30267450"/>
    <trip id="veh193" type="veh_passenger" depart="54.20" departLane="best" departSpeed="max" from="-30602388" to="22635975#2"/>
    <trip id="veh194" type="veh_passenger" depart="54.48" departLane="best" departSpeed="max" from="27198523" to="-23543754"/>
    <trip id="veh195" type="veh_passenger" depart="54.76" departLane="best" departSpeed="max" from="29495319#0" to="30267803"/>
    <trip id="veh198" type="veh_passenger" depart="55.60" departLane="best" departSpeed="max" from="-30603313" to="-29495319#0"/>
    <trip id="veh199" type="veh_passenger" depart="55.88" departLane="best" departSpeed="max" from="27198523" to="96107123#2"/>
    <trip id="veh201" type="veh_passenger" depart="56.44" departLane="best" departSpeed="max" from="30130339#0" to="30137885"/>
    <trip id="veh203" type="veh_passenger" depart="57.00" departLane="best" departSpeed="max" from="29995114" to="30130347#2"/>
    <trip id="veh204" type="veh_passenger" depart="57.28" departLane="best" departSpeed="max" from="30130339#0" to="30267630"/>
    <trip id="veh205" type="veh_passenger" depart="57.57" departLane="best" departSpeed="max" from="-30602325#1" to="23543758#1"/>
    <trip id="veh206" type="veh_passenger" depart="57.85" departLane="best" departSpeed="max" from="-30137925" to="30137895"/>
    <trip id="veh210" type="veh_passenger" depart="58.97" departLane="best" departSpeed="max" from="-382403297" to="132652453#3"/>
    <trip id="veh211" type="veh_passenger" depart="59.25" departLane="best" departSpeed="max" from="-30137895" to="30267450"/>
    <trip id="veh212" type="veh_passenger" depart="59.53" departLane="best" departSpeed="max" from="27198558" to="-29495319#0"/>
    <trip id="veh213" type="veh_passenger" depart="59.81" departLane="best" departSpeed="max" from="-30602290" to="30130347#2"/>
    <trip id="veh214" type="veh_passenger" depart="60.09" departLane="best" departSpeed="max" from="-30602290" to="225545134#6"/>
    <trip id="veh215" type="veh_passenger" depart="60.37" departLane="best" departSpeed="max" from="-30602290" to="30603313"/>
    <trip id="veh217" type="veh_passenger" depart="60.94" departLane="best" departSpeed="max" from="30001485" to="30267803"/>
    <trip id="veh218" type="veh_passenger" depart="61.22" departLane="best" departSpeed="max" from="-30601243" to="-23543754"/>
    <trip id="veh219" type="veh_passenger" depart="61.50" departLane="best" departSpeed="max" from="-30267630" to="30267803"/>
    <trip id="veh221" type="veh_passenger" depart="62.06" departLane="best" departSpeed="max" from="-30602290" to="30267630"/>
    <trip id="veh222" type="veh_passenger" depart="62.34" departLane="best" departSpeed="max" from="-30137895" to="225545134#6"/>
    <trip id="veh223" type="veh_passenger" depart="62.62" departLane="best" departSpeed="max" from="-30602312#1" to="-27380645"/>
    <trip id="veh224" type="veh_passenger" depart="62.90" departLane="best" departSpeed="max" from="-30267582" to="30267383"/>
    <trip id="veh225" type="veh_passenger" depart="63.18" departLane="best" departSpeed="max" from="-30602290" to="18821052#0"/>
    <trip id="veh226" type="veh_passenger" depart="63.46" departLane="best" departSpeed="max" from="23543754" to="-27380645"/>
    <trip id="veh227" type="veh_passenger" depart="63.74" departLane="best" departSpeed="max" from="-30601243" to="30130347#2"/>
    <trip id="veh228" type="veh_passenger" depart="64.02" departLane="best" departSpeed="max" from="-23543762#1" to="30137925"/>
    <trip id="veh230" type="veh_passenger" depart="64.59" departLane="best" departSpeed="max" from="-23543762#1" to="27380646#2"/>
    <trip id="veh232" type="veh_passenger" depart="65.15" departLane="best" departSpeed="max" from="29495319#0" to="27380646#2"/>
    <trip id="veh233" type="veh_passenger" depart="65.43" departLane="best" departSpeed="max" from="29495319#0" to="30602312#1"/>
    <trip id="veh235" type="veh_passenger" depart="65.99" departLane="best" departSpeed="max" from="-132652453#3" to="30130347#2"/>
    <trip id="veh236" type="veh_passenger" depart="66.27" departLane="best" from="94962832#1" to="27198551#1"/>
    <trip id="veh237" type="veh_passenger" depart="66.55" departLane="best" departSpeed="max" from="27198523" to="30601243"/>
    <trip id="veh238" type="veh_passenger" depart="66.83" departLane="best" departSpeed="max" from="27198523" to="30267803"/>
    <trip id="veh239" type="veh_passenger" depart="67.11" departLane="best" departSpeed="max" from="48741591" to="193476777#1"/>
    <trip id="veh240" type="veh_passenger" depart="67.39" departLane="best" departSpeed="max" from="-29994275" to="30267383"/>
    <trip id="veh242" type="veh_passenger" depart="67.96" departLane="best" departSpeed="max" from="27198558" to="30267803"/>
    <trip id="veh246" type="veh_passenger" depart="69.08" departLane="best" departSpeed="max" from="-29994275" to="-27380645"/>
    <trip id="veh247" type="veh_passenger" depart="69.36" departLane="best" departSpeed="max" from="48741591" to="29994275"/>
    <trip id="veh250" type="veh_passenger" depart="70.20" departLane="best" departSpeed="max" from="30001485" to="30137885"/>
    <trip id="veh251" type="veh_passenger" depart="70.48" departLane="best" departSpeed="max" from="-29994275" to="96107123#2"/>
    <trip id="veh253" type="veh_passenger" depart="71.04" departLane="best" departSpeed="max" from="-30602312#1" to="27380646#2"/>
    <trip id="veh254" type="veh_passenger" depart="71.33" departLane="best" departSpeed="max" from="-30603313" to="27198531#1"/>
    <trip id="veh255" type="veh_passenger" depart="71.61" departLane="best" departSpeed="max" from="30001485" to="30602312#1"/>
    <trip id="veh256" type="veh_passenger" depart="71.89" departLane="best" departSpeed="max" from="23543754" to="30602312#1"/>
    <trip id="veh257" type="veh_passenger" depart="72.17" departLane="best" departSpeed="max" from="27198558" to="30016347#1"/>
    <trip id="veh259" type="veh_passenger" depart="72.73" departLane="best" departSpeed="max" from="-30267383" to="30602290"/>
    <trip id="veh261" type="veh_passenger" depart="73.29" departLane="best" departSpeed="max" from="-30602312#1" to="30267630"/>
    <trip id="veh262" type="veh_passenger" depart="73.57" departLane="best" departSpeed="max" from="-30267383" to="30602325#1"/>
    <trip id="veh264" type="veh_passenger" depart="74.13" departLane="best" departSpeed="max" from="30015999" to="22635975#2"/>
    <trip id="veh265" type="veh_passenger" depart="74.41" departLane="best" departSpeed="max" from="-30602325#1" to="30137885"/>
    <trip id="veh266" type="veh_passenger" depart="74.69" departLane="best" departSpeed="max" from="-30601243" to="-27380645"/>
    <trip id="veh267" type="veh_passenger" depart="74.98" departLane="best" departSpeed="max" from="30001485" to="193476777#1"/>
    <trip id="veh268" type="veh_passenger" depart="75.26" departLane="best" departSpeed="max" from="-30137885" to="30602290"/>
    <trip id="veh269" type="veh_passenger" depart="75.54" departLane="best" departSpeed="max" from="-30267582" to="30602359#1"/>
    <trip id="veh270" type="veh_passenger" depart="75.82" departLane="best" departSpeed="max" from="27198558" to="23543762#1"/>
    <trip id="veh273" type="veh_passenger" depart="76.66" departLane="best" departSpeed="max" from="27198540#0" to="30137925"/>
    <trip id="veh275" type="veh_passenger" depart="77.22" departLane="best" departSpeed="max" from="27198540#0" to="27196925"/>
    <trip id="veh277" type="veh_passenger" depart="77.78" departLane="best" departSpeed="max" from="-30603313" to="29994751"/>
    <trip id="veh279" type="veh_passenger" depart="78.35" departLane="best" departSpeed="max" from="27198558" to="23543758#1"/>
    <trip id="veh280" type="veh_passenger" depart="78.63" departLane="best" departSpeed="max" from="-30137925" to="-511316582#0"/>
    <trip id="veh282" type="veh_passenger" depart="79.19" departLane="best" departSpeed="max" from="-30602388" to="30267582"/>
    <trip id="veh284" type="veh_passenger" depart="79.75" departLane="best" departSpeed="max" from="-30267383" to="-41865752#0"/>
    <trip id="veh285" type="veh_passenger" depart="80.03" departLane="best" departSpeed="max" from="-30137885" to="22635975#2"/>
    <trip id="veh287" type="veh_passenger" depart="80.59" departLane="best" departSpeed="max" from="-382403297" to="23543762#1"/>
    <trip id="veh288" type="veh_passenger" depart="80.87" departLane="best" departSpeed="max" from="511316582#0" to="30130347#2"/>
    <trip id="veh289" type="veh_passenger" depart="81.15" departLane="best" departSpeed="max" from="27198558" to="-511316582#0"/>
    <trip id="veh291" type="veh_passenger" depart="81.72" departLane="best" departSpeed="max" from="30015999" to="30137832#1"/>
    <trip id="veh295" type="veh_passenger" depart="82.84" departLane="best" departSpeed="max" from="29995114" to="29994275"/>
    <trip id="veh298" type="veh_passenger" depart="83.68" departLane="best" departSpeed="max" from="29495319#0" to="30137885"/>
    <trip id="veh301" type="veh_passenger" depart="84.52" departLane="best" departSpeed="max" from="511316582#0" to="27196925"/>
    <trip id="veh302" type="veh_passenger" depart="84.80" departLane="best" departSpeed="max" from="23543754" to="30137885"/>
    <trip id="veh303" type="veh_passenger" depart="85.08" departLane="best" departSpeed="max" from="-30137885" to="225545134#6"/>
    <trip id="veh304" type="veh_passenger" depart="85.37" departLane="best" departSpeed="max" from="27198523" to="132652453#3"/>
    <trip id="veh307" type="veh_passenger" depart="86.21" departLane="best" departSpeed="max" from="-30137895" to="30267450"/>
    <trip id="veh309" type="veh_passenger" depart="86.77" departLane="best" departSpeed="max" from="27198540#0" to="511308504#1"/>
    <trip id="veh312" type="veh_passenger" depart="87.61" departLane="best" departSpeed="max" from="-30602290" to="30130347#2"/>
    <trip id="veh313" type="veh_passenger" depart="87.89" departLane="best" departSpeed="max" from="27198523" to="30603313"/>
    <trip id="veh317" type="veh_passenger" depart="89.02" departLane="best" departSpeed="max" from="-30267383" to="-511316582#0"/>
    <trip id="veh318" type="veh_passenger" depart="89.30" departLane="best" departSpeed="max" from="27198540#0" to="30267450"/>
    <trip id="veh321" type="veh_passenger" depart="90.14" departLane="best" departSpeed="max" from="-30267582" to="23543758#1"/>
    <trip id="veh322" type="veh_passenger" depart="90.42" departLane="best" departSpeed="max" from="30001485" to="30137832#1"/>
    <trip id="veh323" type="veh_passenger" depart="90.70" departLane="best" departSpeed="max" from="48741591" to="96107123#2"/>
    <trip id="veh324" type="veh_passenger" depart="90.98" departLane="best" departSpeed="max" from="27198540#0" to="23543758#1"/>
    <trip id="veh325" type="veh_passenger" depart="91.26" departLane="best" departSpeed="max" from="-23543762#1" to="30267803"/>