<?xml version="1.0" encoding="UTF-8"?>

<!-- generated on Fri Sep 20 10:07:40 2019 by Eclipse SUMO polyconvert Version 1.2.0
<configuration xmlns:xsi="http://www.w3.org/2001/XMLSchema-instance" xsi:noNamespaceSchemaLocation="http://sumo.dlr.de/xsd/polyconvertConfiguration.xsd">

    <input>
        <net-file value="osm.net.xml"/>
        <osm-files value="osm_bbox.osm.xml"/>
        <osm.keep-full-type value="true"/>
        <type-file value="/usr/share/sumo/data/typemap/osmPolyconvert.typ.xml"/>
    </input>

    <output>
        <output-file value="osm.poly.xml"/>
    </output>

    <processing>
        <poi-layer-offset value="5"/>
    </processing>

    <report>
        <verbose value="true"/>
    </report>

</configuration>
-->

<additional xmlns:xsi="http://www.w3.org/2001/XMLSchema-instance" xsi:noNamespaceSchemaLocation="http://sumo.dlr.de/xsd/additional_file.xsd">
    <location netOffset="-633360.43,-3925331.46" convBoundary="0.00,0.00,1640.70,2227.09" origBoundary="-97.530043,35.462402,-97.511930,35.482421" projParameter="+proj=utm +zone=14 +ellps=WGS84 +datum=WGS84 +units=m +no_defs"/>

    <poly id="113737408" type="building.yes" color="255,230,230" fill="1" layer="-1.00" shape="1121.856479,1048.636822 1120.943054,1005.511010 1239.670208,1003.056572 1240.573989,1046.182276 1121.856479,1048.636822"/>
    <poly id="139931589" type="landuse.retail" color="194,194,130" fill="1" layer="-3.00" shape="621.458006,1123.411299 622.134475,1078.800616 651.685360,1078.721329 651.912594,1112.661839 631.736795,1112.737157 630.927963,1123.730486 621.458006,1123.411299"/>
    <poly id="139931592" type="landuse.residential" color="235,235,227" fill="1" layer="-3.00" shape="510.892654,960.670441 656.639247,958.723113 663.112617,973.719468 662.334998,1012.947957 662.184769,1057.555422 509.933710,1058.218283 510.469935,1015.058861 510.892654,960.670441"/>
    <poly id="139936357" type="landuse.commercial" color="209,209,204" fill="1" layer="-3.00" shape="648.920438,1239.235006 585.352318,1240.158908 585.850868,1194.691309 646.164149,1193.574467 649.322602,1195.984791 649.047356,1225.901693 648.920438,1239.235006"/>
    <poly id="139939903" type="landuse.commercial" color="209,209,204" fill="1" layer="-3.00" shape="664.372934,1288.535846 664.535685,1244.915934 683.186550,1244.840066 681.033130,1289.273343 664.372934,1288.535846"/>
    <poly id="140026884" type="amenity.school" color="237,199,199" fill="1" layer="-1.00" shape="787.637691,1404.540764 788.502374,1309.864751 665.259508,1311.159071 664.531176,1404.694377 787.637691,1404.540764"/>
    <poly id="140026893" type="landuse.commercial" color="209,209,204" fill="1" layer="-3.00" shape="727.648049,1588.371744 756.632027,1589.072076 756.362325,1634.343463 727.402723,1633.843186 727.648049,1588.371744"/>
    <poly id="140026893#1" type="tourism.hotel" color="207,245,201" fill="1" layer="-2.00" shape="727.648049,1588.371744 756.632027,1589.072076 756.362325,1634.343463 727.402723,1633.843186 727.648049,1588.371744"/>
    <poly id="140026917" type="landuse.residential" color="235,235,227" fill="1" layer="-3.00" shape="720.620973,1474.029586 758.336797,1474.039685 757.787976,1517.953392 719.180423,1517.508355 720.620973,1474.029586"/>
    <poly id="140038124" type="landuse.commercial" color="209,209,204" fill="1" layer="-3.00" shape="786.647354,1516.688272 772.492963,1518.328969 772.529576,1473.475675 788.302163,1473.467875 788.756640,1514.611973 786.647354,1516.688272"/>
    <poly id="140046250" type="landuse.commercial" color="209,209,204" fill="1" layer="-3.00" shape="702.394705,1244.517413 683.186550,1244.840066 681.033130,1289.273343 702.385458,1288.783094 702.394705,1244.517413"/>
    <poly id="140046251" type="landuse.commercial" color="209,209,204" fill="1" layer="-3.00" shape="788.353865,1242.232314 787.477086,1286.828937 719.797854,1288.378128 719.808018,1244.056987 788.353865,1242.232314"/>
    <poly id="140050205" type="landuse.residential" color="235,235,227" fill="1" layer="-3.00" shape="704.047511,1517.226306 704.439953,1465.555425 530.072062,1464.311169 529.750894,1420.240270 786.955668,1420.384155 786.583698,1467.628772 772.553189,1467.052488 772.529576,1473.475675 772.492963,1518.328969 757.787976,1517.953392 758.336797,1474.039685 757.792683,1466.742649 720.878534,1465.313405 720.620973,1474.029586 719.180423,1517.508355 704.047511,1517.226306"/>
    <poly id="140050964" type="amenity.hospital" color="237,199,199" fill="1" layer="-1.00" shape="430.968473,1798.617517 422.250736,1796.590150 415.480561,1793.582319 411.513887,1790.006199 407.209614,1785.337807 404.770792,1779.110817 407.584619,1703.745699 351.150199,1706.053522 351.998240,1660.202854 351.349582,1641.654797 335.105667,1642.255400 334.687843,1596.696475 400.406345,1596.834789 400.267772,1581.811200 419.605752,1582.466201 419.685625,1577.120000 420.601893,1532.191167 474.985356,1533.602912 473.709380,1578.293397 473.665314,1583.063237 510.013844,1584.050353 508.230310,1649.324065 547.359675,1650.031188 547.370586,1631.703752 547.384554,1628.342422 547.521550,1585.199176 547.801485,1579.223595 529.130745,1578.855649 530.362296,1534.120119 718.662066,1537.581087 748.996150,1537.824553 749.092343,1583.511900 727.663434,1583.102231 727.648049,1588.371744 727.402723,1633.843186 727.451651,1655.422134 755.251289,1656.415374 756.362325,1634.343463 756.632027,1589.072076 785.112208,1588.267238 785.428443,1654.992500 787.110210,1656.615260 785.808394,1761.680042 730.940381,1761.202098 736.380549,1793.024080 736.625285,1801.525903 430.968473,1798.617517"/>
    <poly id="140063841" type="landuse.residential" color="235,235,227" fill="1" layer="-3.00" shape="563.326322,1469.556759 563.381321,1514.422472 656.063309,1516.319430 656.472718,1470.772807 563.326322,1469.556759"/>
    <poly id="140065305" type="landuse.residential" color="235,235,227" fill="1" layer="-3.00" shape="649.164878,1312.049815 647.423348,1405.381352 578.274347,1405.755781 578.566886,1361.927030 600.262975,1361.497158 600.138084,1355.892725 599.675931,1312.773807 649.164878,1312.049815"/>
    <poly id="140065306" type="landuse.residential" color="235,235,227" fill="1" layer="-3.00" shape="585.850868,1194.691309 572.992827,1194.576662 572.953711,1240.883193 572.970142,1247.673078 525.791275,1248.043746 524.909572,1290.022037 649.376677,1288.799567 648.930616,1245.226019 585.075180,1245.945926 585.352318,1240.158908 585.850868,1194.691309"/>
    <poly id="140066527" type="landuse.residential" color="235,235,227" fill="1" layer="-3.00" shape="759.837557,1050.851976 759.963750,1012.124051 787.910859,1011.888056 788.267490,996.561227 788.539619,994.146770 789.684698,991.013171 792.611024,990.746367 794.187857,877.598160 792.246994,876.903438 791.911294,875.078963 792.395850,866.965275 792.198042,855.934689 788.118432,852.001714 778.019445,851.850459 770.575428,853.192315 747.568216,853.213902 747.598110,851.217396 682.825824,852.366770 682.544648,854.781094 678.290929,854.595398 670.012156,863.202626 669.652016,919.411456 670.053449,949.593640 676.377862,966.052208 678.694438,965.898276 678.248220,1052.714684 681.718032,1056.760523 754.635809,1055.799746 759.837557,1050.851976"/>
    <poly id="141694820" type="amenity.courthouse" color="237,199,199" fill="1" layer="-1.00" shape="1120.499707,958.276309 1238.229465,956.405935 1240.961411,1049.993415 1119.957444,1051.204351 1120.499707,958.276309"/>
    <poly id="142414497" type="landuse.commercial" color="209,209,204" fill="1" layer="-3.00" shape="1158.606716,1743.764411 1127.205934,1743.891804 1126.934388,1701.552176 1158.624574,1700.896601 1158.606716,1743.764411"/>
    <poly id="142414497#1" type="tourism.hotel" color="207,245,201" fill="1" layer="-2.00" shape="1158.606716,1743.764411 1127.205934,1743.891804 1126.934388,1701.552176 1158.624574,1700.896601 1158.606716,1743.764411"/>
    <poly id="142414506" type="landuse.commercial" color="209,209,204" fill="1" layer="-3.00" shape="1204.179446,1649.027760 1218.454569,1649.009321 1247.730911,1648.362151 1248.976131,1648.835733 1250.554349,1650.701101 1251.103152,1693.876990 1250.083827,1694.072456 1250.488875,1720.249829 1250.696270,1741.465112 1250.707647,1742.519235 1211.985521,1743.113165 1211.932718,1700.133340 1211.924340,1694.652666 1204.861351,1694.834968 1204.179446,1649.027760"/>
    <poly id="142414516" type="landuse.commercial" color="209,209,204" fill="1" layer="-3.00" shape="1158.624574,1700.896601 1175.707943,1700.598555 1176.175434,1743.773206 1158.606716,1743.764411 1158.624574,1700.896601"/>
    <poly id="142414527" type="landuse.commercial" color="209,209,204" fill="1" layer="-3.00" shape="1198.289206,1743.273436 1197.357608,1700.191654 1211.932718,1700.133340 1211.985521,1743.113165 1198.289206,1743.273436"/>
    <poly id="142414530" type="landuse.commercial" color="209,209,204" fill="1" layer="-3.00" shape="1041.637316,1745.247393 1003.401357,1746.104688 1003.327660,1702.636449 1041.481898,1702.399195 1041.637316,1745.247393"/>
    <poly id="142414530#1" type="shop.copyshop" color="237,199,255" fill="1" layer="-1.00" shape="1041.637316,1745.247393 1003.401357,1746.104688 1003.327660,1702.636449 1041.481898,1702.399195 1041.637316,1745.247393"/>
    <poly id="142414535" type="landuse.commercial" color="209,209,204" fill="1" layer="-3.00" shape="1268.134565,1719.971509 1298.326205,1719.393747 1297.666010,1698.726361 1306.793935,1698.819262 1313.762529,1698.879695 1313.820161,1700.478131 1315.100317,1740.259112 1313.383020,1741.608967 1307.538484,1741.632005 1268.087614,1741.804246 1268.134565,1719.971509"/>
    <poly id="142414538" type="landuse.residential" color="235,235,227" fill="0" layer="-3.00" shape="1158.624574,1700.896601 1158.606716,1743.764411"/>
    <poly id="142414539" type="landuse.retail" color="194,194,130" fill="1" layer="-3.00" shape="802.280908,1705.235468 848.994401,1704.881574 849.659240,1752.552250 842.230824,1760.772656 810.133205,1791.666037 808.916533,1791.104189 807.170056,1790.168294 805.538698,1789.422726 802.810538,1788.594158 801.478677,1788.452165 802.125648,1757.386993 801.565948,1749.923301 802.280908,1705.235468"/>
    <poly id="142414540" type="landuse.commercial" color="209,209,204" fill="1" layer="-3.00" shape="986.687052,1703.063503 1003.327660,1702.636449 1003.401357,1746.104688 987.914568,1746.449202 986.687052,1703.063503"/>
    <poly id="142419601" type="amenity.parking" color="184,184,179" fill="1" layer="-1.00" shape="1025.109933,1117.688273 1018.493093,1117.744305 1003.661998,1117.865701 996.518736,1117.924945 995.868512,1072.340203 1002.875542,1072.290007 1018.205919,1072.165004 1024.922600,1072.110468 1025.109933,1117.688273"/>
    <poly id="142419601#1" type="landuse.commercial" color="209,209,204" fill="1" layer="-3.00" shape="1025.109933,1117.688273 1018.493093,1117.744305 1003.661998,1117.865701 996.518736,1117.924945 995.868512,1072.340203 1002.875542,1072.290007 1018.205919,1072.165004 1024.922600,1072.110468 1025.109933,1117.688273"/>
    <poly id="142419602" type="amenity.parking" color="184,184,179" fill="1" layer="-1.00" shape="1267.973659,1192.239016 1350.759834,1190.998817 1362.840283,1190.925374 1362.937737,1198.925777 1362.999541,1200.246919 1363.451268,1200.985934 1364.055343,1201.250189 1368.009478,1201.431711 1367.752796,1219.700039 1364.504218,1219.673356 1363.789658,1220.117469 1363.576863,1220.990712 1364.288336,1223.164789 1365.547127,1227.565946 1277.348193,1228.480543 1275.673518,1222.764030 1273.602971,1222.854938 1275.606454,1228.432169 1274.370317,1228.557810 1272.387148,1222.836660 1271.671387,1221.550064 1271.432997,1217.485996 1273.609098,1210.374032 1274.036544,1210.313893 1275.389684,1204.820408 1273.510506,1204.858722 1272.283894,1210.387392 1269.588786,1210.369064 1271.067115,1204.999497 1269.243378,1204.972080 1269.802186,1204.625466 1269.708191,1198.200499 1267.973659,1192.239016"/>
    <poly id="142419602#1" type="leisure.park" color="207,245,201" fill="1" layer="-2.00" shape="1267.973659,1192.239016 1350.759834,1190.998817 1362.840283,1190.925374 1362.937737,1198.925777 1362.999541,1200.246919 1363.451268,1200.985934 1364.055343,1201.250189 1368.009478,1201.431711 1367.752796,1219.700039 1364.504218,1219.673356 1363.789658,1220.117469 1363.576863,1220.990712 1364.288336,1223.164789 1365.547127,1227.565946 1277.348193,1228.480543 1275.673518,1222.764030 1273.602971,1222.854938 1275.606454,1228.432169 1274.370317,1228.557810 1272.387148,1222.836660 1271.671387,1221.550064 1271.432997,1217.485996 1273.609098,1210.374032 1274.036544,1210.313893 1275.389684,1204.820408 1273.510506,1204.858722 1272.283894,1210.387392 1269.588786,1210.369064 1271.067115,1204.999497 1269.243378,1204.972080 1269.802186,1204.625466 1269.708191,1198.200499 1267.973659,1192.239016"/>
    <poly id="142419606" type="amenity.place_of_worship" color="237,199,199" fill="1" layer="-1.00" shape="1366.368584,1067.388795 1259.424950,1069.053437 1260.726523,1164.194829 1368.032793,1162.480237 1366.368584,1067.388795"/>
    <poly id="142419608" type="amenity.place_of_worship" color="237,199,199" fill="1" layer="-1.00" shape="1043.922148,1071.807589 1101.191681,1070.992012 1101.896923,1166.068882 1063.889724,1166.030832 1063.128234,1123.650622 1063.038998,1117.503092 1044.722879,1117.627582 1043.922148,1071.807589"/>
    <poly id="142419611" type="landuse.retail" color="194,194,130" fill="1" layer="-3.00" shape="978.105290,1072.506411 995.868512,1072.340203 996.518736,1117.924945 978.504133,1118.520050 978.105290,1072.506411"/>
    <poly id="142420083" type="amenity.social_facility" color="237,199,199" fill="1" layer="-1.00" shape="871.340820,1236.020517 870.408451,1192.872298 902.177710,1192.505372 903.605372,1235.294918 871.340820,1236.020517"/>
    <poly id="142420084" type="landuse.commercial" color="209,209,204" fill="1" layer="-3.00" shape="855.522958,1170.593934 855.149004,1122.273104 855.134555,1120.209367 870.803877,1119.867312 870.800508,1121.908593 870.746313,1168.514504 870.748359,1170.799939 855.522958,1170.593934"/>
    <poly id="142420085" type="landuse.commercial" color="209,209,204" fill="1" layer="-3.00" shape="1003.219970,1166.684663 1025.902097,1166.503571 1025.064591,1123.733934 1002.088513,1124.143601 1003.219970,1166.684663"/>
    <poly id="142420086" type="landuse.residential" color="235,235,227" fill="1" layer="-3.00" shape="1057.137576,1190.824887 1049.250024,1190.895104 1042.124632,1190.976767 1042.082522,1196.201507 1042.361575,1211.471324 1042.306848,1239.305871 1057.745822,1239.182578 1057.137576,1190.824887"/>
    <poly id="142420088" type="landuse.residential" color="235,235,227" fill="1" layer="-3.00" shape="980.506936,1191.916061 1042.124632,1190.976767 1042.082522,1196.201507 1042.361575,1211.471324 1042.306848,1239.305871 981.794173,1239.806863 980.652407,1197.343309 980.506936,1191.916061"/>
    <poly id="142420089" type="landuse.commercial" color="209,209,204" fill="1" layer="-3.00" shape="840.065571,1170.728398 839.780273,1122.542032 839.768812,1120.278644 855.134555,1120.209367 855.149004,1122.273104 855.522958,1170.593934 840.065571,1170.728398"/>
    <poly id="142420091" type="amenity.post_office" color="237,199,199" fill="1" layer="-1.00" shape="981.794173,1239.806863 1042.306848,1239.305871 1057.745822,1239.182578 1057.137576,1190.824887 1060.451505,1190.730403 1070.184273,1190.466010 1093.581063,1189.829863 1102.106415,1189.591753 1102.683690,1224.280925 1102.748930,1228.397857 1103.196047,1254.830982 1103.623098,1280.786757 1058.526275,1281.507608 1005.828096,1281.981500 999.104924,1283.688983 989.054778,1283.338506 982.021565,1277.885587 981.794173,1239.806863"/>
    <poly id="142420092" type="amenity.parking" color="184,184,179" fill="1" layer="-1.00" shape="1039.227162,1124.013028 1039.880385,1166.358323 1063.889724,1166.030832 1063.128234,1123.650622 1039.227162,1124.013028"/>
    <poly id="142420092#1" type="landuse.commercial" color="209,209,204" fill="1" layer="-3.00" shape="1039.227162,1124.013028 1039.880385,1166.358323 1063.889724,1166.030832 1063.128234,1123.650622 1039.227162,1124.013028"/>
    <poly id="142420093" type="landuse.retail" color="194,194,130" fill="1" layer="-3.00" shape="902.177710,1192.505372 924.452789,1192.229171 924.556309,1195.614454 925.765885,1234.784028 903.605372,1235.294918 902.177710,1192.505372"/>
    <poly id="142420094" type="amenity.parking" color="184,184,179" fill="1" layer="-1.00" shape="1025.902097,1166.503571 1025.064591,1123.733934 1039.227162,1124.013028 1039.880385,1166.358323 1025.902097,1166.503571"/>
    <poly id="142420094#1" type="landuse.commercial" color="209,209,204" fill="1" layer="-3.00" shape="1025.902097,1166.503571 1025.064591,1123.733934 1039.227162,1124.013028 1039.880385,1166.358323 1025.902097,1166.503571"/>
    <poly id="142420133" type="landuse.commercial" color="209,209,204" fill="1" layer="-3.00" shape="824.720655,1171.230683 823.952723,1123.148031 823.921782,1120.973105 839.768812,1120.278644 839.780273,1122.542032 840.065571,1170.728398 824.720655,1171.230683"/>
    <poly id="142434982" type="amenity.parking" color="184,184,179" fill="1" layer="-1.00" shape="932.728667,1240.701800 902.176222,1241.031382 902.562197,1284.293458 933.296957,1283.900053 932.728667,1240.701800"/>
    <poly id="142434982#1" type="building.yes" color="255,230,230" fill="1" layer="-1.00" shape="932.728667,1240.701800 902.176222,1241.031382 902.562197,1284.293458 933.296957,1283.900053 932.728667,1240.701800"/>
    <poly id="142434982#2" type="landuse.commercial" color="209,209,204" fill="1" layer="-3.00" shape="932.728667,1240.701800 902.176222,1241.031382 902.562197,1284.293458 933.296957,1283.900053 932.728667,1240.701800"/>
    <poly id="142434985" type="amenity.parking" color="184,184,179" fill="1" layer="-1.00" shape="1122.294303,1305.341266 1153.772129,1304.416161 1154.276653,1347.558052 1122.751868,1347.994297 1122.294303,1305.341266"/>
    <poly id="142434985#1" type="building.yes" color="255,230,230" fill="1" layer="-1.00" shape="1122.294303,1305.341266 1153.772129,1304.416161 1154.276653,1347.558052 1122.751868,1347.994297 1122.294303,1305.341266"/>
    <poly id="142434985#2" type="landuse.commercial" color="209,209,204" fill="1" layer="-3.00" shape="1122.294303,1305.341266 1153.772129,1304.416161 1154.276653,1347.558052 1122.751868,1347.994297 1122.294303,1305.341266"/>
    <poly id="142434987" type="landuse.industrial" color="209,209,204" fill="1" layer="-3.00" shape="836.701576,1467.880470 836.050105,1422.939195 864.277449,1422.086419 867.591288,1421.991866 867.897755,1467.538160 836.701576,1467.880470"/>
    <poly id="142434987#1" type="shop.car_repair" color="237,199,255" fill="1" layer="-1.00" shape="836.701576,1467.880470 836.050105,1422.939195 864.277449,1422.086419 867.591288,1421.991866 867.897755,1467.538160 836.701576,1467.880470"/>
    <poly id="142434988" type="landuse.residential" color="235,235,227" fill="1" layer="-3.00" shape="1316.454752,1351.526613 1369.966912,1350.012859 1370.984958,1395.747493 1316.675469,1397.193766 1316.454752,1351.526613"/>
    <poly id="142434989" type="amenity.social_facility" color="237,199,199" fill="1" layer="-1.00" shape="880.108527,1240.800409 902.176222,1241.031382 902.562197,1284.293458 879.709252,1284.993716 880.108527,1240.800409"/>
    <poly id="142434990" type="amenity.social_centre" color="237,199,199" fill="1" layer="-1.00" shape="1277.747721,1303.317075 1308.177402,1303.297575 1308.929596,1345.611164 1278.333739,1345.827854 1278.460955,1341.591773 1277.747721,1303.317075"/>
    <poly id="142434990#1" type="landuse.commercial" color="209,209,204" fill="1" layer="-3.00" shape="1277.747721,1303.317075 1308.177402,1303.297575 1308.929596,1345.611164 1278.333739,1345.827854 1278.460955,1341.591773 1277.747721,1303.317075"/>
    <poly id="142435000" type="landuse.commercial" color="209,209,204" fill="1" layer="-3.00" shape="889.256600,1467.192696 889.010261,1421.880276 935.199846,1421.463441 935.244319,1423.339029 935.781603,1448.630782 935.428803,1466.709047 889.256600,1467.192696"/>
    <poly id="142435004" type="amenity.place_of_worship" color="237,199,199" fill="1" layer="-1.00" shape="1302.528289,1461.094543 1302.728722,1467.077346 1303.613569,1512.033366 1264.789631,1512.692147 1263.318723,1352.169896 1316.454752,1351.526613 1316.675469,1397.193766 1317.020599,1415.881634 1371.042657,1416.039707 1371.587413,1460.657801 1302.528289,1461.094543"/>
    <poly id="142435007" type="landuse.commercial" color="209,209,204" fill="1" layer="-3.00" shape="1323.184547,1302.313995 1308.177402,1303.297575 1308.929596,1345.611164 1324.035040,1345.328003 1323.184547,1302.313995"/>
    <poly id="142435009" type="landuse.commercial" color="209,209,204" fill="1" layer="-3.00" shape="1336.879907,1235.288975 1368.918075,1234.539456 1369.051587,1277.542687 1354.746974,1277.671411 1340.378849,1277.799203 1338.082483,1277.820133 1336.879907,1235.288975"/>
    <poly id="142435010" type="landuse.residential" color="235,235,227" fill="1" layer="-3.00" shape="840.705332,1241.285982 880.108527,1240.800409 879.709252,1284.993716 842.185073,1285.463063 841.005127,1257.010952 840.705332,1241.285982"/>
    <poly id="142435017" type="amenity.bank" color="237,199,199" fill="1" layer="-1.00" shape="807.096949,1307.480711 865.900945,1307.718449 870.402917,1307.674987 893.158086,1307.439199 903.650536,1307.341338 904.941470,1350.772307 893.815612,1350.749726 871.064875,1350.697124 866.382293,1350.682407 806.717260,1352.206825 807.096949,1307.480711"/>
    <poly id="142435017#1" type="landuse.commercial" color="209,209,204" fill="1" layer="-3.00" shape="807.096949,1307.480711 865.900945,1307.718449 870.402917,1307.674987 893.158086,1307.439199 903.650536,1307.341338 904.941470,1350.772307 893.815612,1350.749726 871.064875,1350.697124 866.382293,1350.682407 806.717260,1352.206825 807.096949,1307.480711"/>
    <poly id="142435019" type="landuse.commercial" color="209,209,204" fill="1" layer="-3.00" shape="867.897755,1467.538160 867.591288,1421.991866 886.551620,1421.832323 889.010261,1421.880276 889.256600,1467.192696 887.005321,1467.236605 867.897755,1467.538160"/>
    <poly id="142435022" type="landuse.retail" color="194,194,130" fill="1" layer="-3.00" shape="1323.184547,1302.313995 1369.069716,1301.672904 1369.921824,1344.564915 1324.035040,1345.328003 1323.184547,1302.313995"/>
    <poly id="142435025" type="landuse.commercial" color="209,209,204" fill="1" layer="-3.00" shape="1417.678855,1276.821058 1417.400535,1247.073240 1400.475359,1247.051512 1374.311583,1247.023946 1374.652452,1277.449445 1417.678855,1276.821058"/>
    <poly id="142435025#1" type="shop.laundry" color="237,199,255" fill="1" layer="-1.00" shape="1417.678855,1276.821058 1417.400535,1247.073240 1400.475359,1247.051512 1374.311583,1247.023946 1374.652452,1277.449445 1417.678855,1276.821058"/>
    <poly id="142494916" type="landuse.industrial" color="209,209,204" fill="1" layer="-3.00" shape="1345.237890,1509.819310 1372.202931,1509.015720 1371.544936,1465.893639 1344.646447,1466.487447 1345.237890,1509.819310"/>
    <poly id="142494920" type="landuse.industrial" color="209,209,204" fill="1" layer="-3.00" shape="1302.728722,1467.077346 1338.836520,1466.610841 1344.646447,1466.487447 1345.237890,1509.819310 1303.613569,1512.033366 1302.728722,1467.077346"/>
    <poly id="142494925" type="landuse.residential" color="235,235,227" fill="1" layer="-3.00" shape="927.952136,1582.209652 927.388980,1633.678334 966.149373,1632.373698 966.124807,1630.986553 967.631904,1630.942597 967.695475,1627.914831 969.157041,1627.881286 968.346806,1539.126543 882.072459,1540.217988 882.635674,1517.782855 882.418627,1472.936829 868.506835,1472.916885 865.932349,1473.333156 867.002981,1516.938329 866.477769,1518.073159 866.506167,1540.395122 803.219025,1541.476916 803.721134,1583.675685 927.952136,1582.209652"/>
    <poly id="142494927" type="landuse.industrial" color="209,209,204" fill="1" layer="-3.00" shape="1158.522684,1649.085052 1126.072950,1648.941538 1127.003705,1695.728751 1158.959097,1695.543117 1158.522684,1649.085052"/>
    <poly id="142494934" type="landuse.commercial" color="209,209,204" fill="1" layer="-3.00" shape="1327.041916,1576.821010 1326.797248,1533.960321 1357.126580,1534.527506 1357.618180,1576.648604 1327.041916,1576.821010"/>
    <poly id="142494944" type="landuse.retail" color="194,194,130" fill="1" layer="-3.00" shape="1380.147942,1687.242086 1423.507574,1686.652112 1423.269532,1671.116597 1380.296953,1671.912096 1380.147942,1687.242086"/>
    <poly id="142494946" type="landuse.commercial" color="209,209,204" fill="1" layer="-3.00" shape="1312.100008,1577.117702 1327.041916,1576.821010 1326.797248,1533.960321 1311.038302,1533.667829 1312.100008,1577.117702"/>
    <poly id="142494951" type="landuse.commercial" color="209,209,204" fill="1" layer="-3.00" shape="952.751879,1472.238611 928.809716,1472.378769 928.892765,1477.128334 929.385581,1507.201025 929.557679,1517.510124 937.782968,1517.289560 952.545139,1516.878602 952.751879,1472.238611"/>
    <poly id="142494952" type="landuse.industrial" color="209,209,204" fill="1" layer="-3.00" shape="1450.897036,1508.136586 1450.894638,1493.225898 1494.388599,1492.216666 1494.456659,1507.583210 1450.897036,1508.136586"/>
    <poly id="142494954" type="landuse.commercial" color="209,209,204" fill="1" layer="-3.00" shape="1265.914456,1577.310736 1312.100008,1577.117702 1311.038302,1533.667829 1265.023647,1534.551290 1265.914456,1577.310736"/>
    <poly id="142494958" type="amenity.social_centre" color="237,199,199" fill="1" layer="-1.00" shape="1549.068416,1738.411668 1539.012592,1738.470952 1454.644744,1739.008626 1453.218601,1645.074421 1484.613939,1645.336372 1495.557002,1645.423515 1495.577977,1647.043590 1496.316275,1693.828029 1502.702662,1693.380599 1533.447000,1692.268331 1548.778538,1692.000075 1548.841368,1702.285386 1549.051247,1735.937392 1549.068416,1738.411668"/>
    <poly id="142494960" type="landuse.retail" color="194,194,130" fill="1" layer="-3.00" shape="882.635674,1517.782855 882.418627,1472.936829 928.809716,1472.378769 928.892765,1477.128334 929.385581,1507.201025 929.557679,1517.510124 882.635674,1517.782855"/>
    <poly id="142494961" type="landuse.industrial" color="209,209,204" fill="1" layer="-3.00" shape="1357.618180,1576.648604 1373.865095,1576.471471 1374.010350,1534.249009 1357.126580,1534.527506 1357.618180,1576.648604"/>
    <poly id="142494962" type="landuse.commercial" color="209,209,204" fill="1" layer="-3.00" shape="1066.015259,1665.257932 1065.622851,1650.896124 1109.874876,1650.107232 1110.035817,1664.166025 1066.015259,1665.257932"/>
    <poly id="142494964" type="landuse.retail" color="194,194,130" fill="1" layer="-3.00" shape="1424.268174,1739.816054 1400.852883,1739.962851 1400.723348,1724.451158 1381.186838,1724.944836 1380.708721,1710.282157 1423.670598,1710.185443 1424.268174,1739.816054"/>
    <poly id="142494966" type="landuse.commercial" color="209,209,204" fill="1" layer="-3.00" shape="1422.430490,1648.482819 1380.014419,1649.075911 1380.296953,1671.912096 1423.269532,1671.116597 1422.430490,1648.482819"/>
    <poly id="142494968" type="landuse.retail" color="194,194,130" fill="1" layer="-3.00" shape="1423.670598,1710.185443 1380.708721,1710.282157 1380.147942,1687.242086 1423.507574,1686.652112 1423.670598,1710.185443"/>
    <poly id="142494969" type="landuse.industrial" color="209,209,204" fill="1" layer="-3.00" shape="1342.862964,1649.593081 1352.157924,1649.444466 1359.319257,1649.363607 1373.905705,1649.161498 1374.576748,1690.808256 1374.599580,1692.306321 1352.561301,1693.206189 1343.617057,1693.570869 1342.862964,1649.593081"/>
    <poly id="142502816" type="landuse.commercial" color="209,209,204" fill="1" layer="-3.00" shape="1420.553942,1470.491952 1378.248076,1470.942523 1377.644099,1486.354417 1420.668331,1485.803716 1420.553942,1470.491952"/>
    <poly id="142502817" type="landuse.commercial" color="209,209,204" fill="1" layer="-3.00" shape="1417.256686,1216.229119 1374.045961,1216.422073 1373.284698,1186.189948 1416.426928,1185.130604 1417.256686,1216.229119"/>
    <poly id="142502817#1" type="shop.car" color="237,199,255" fill="1" layer="-1.00" shape="1417.256686,1216.229119 1374.045961,1216.422073 1373.284698,1186.189948 1416.426928,1185.130604 1417.256686,1216.229119"/>
    <poly id="142502818" type="landuse.commercial" color="209,209,204" fill="1" layer="-3.00" shape="1448.634259,1323.272585 1491.413649,1322.762880 1491.566679,1337.309726 1448.635899,1338.837818 1448.634259,1323.272585"/>
    <poly id="142502819" type="landuse.industrial" color="209,209,204" fill="1" layer="-3.00" shape="1452.605392,1623.719875 1452.161625,1577.849617 1495.512399,1577.282022 1495.575885,1623.080000 1452.605392,1623.719875"/>
    <poly id="142502820" type="building.yes" color="255,230,230" fill="1" layer="-1.00" shape="1377.778329,1509.399155 1377.644099,1486.354417 1420.668331,1485.803716 1421.091953,1508.908286 1377.778329,1509.399155"/>
    <poly id="142502820#1" type="landuse.commercial" color="209,209,204" fill="1" layer="-3.00" shape="1377.778329,1509.399155 1377.644099,1486.354417 1420.668331,1485.803716 1421.091953,1508.908286 1377.778329,1509.399155"/>
    <poly id="142502821" type="landuse.commercial" color="209,209,204" fill="1" layer="-3.00" shape="1370.721853,1022.944261 1414.126223,1022.609938 1413.459169,999.390782 1370.490383,999.720571 1370.721853,1022.944261"/>
    <poly id="142502823" type="landuse.commercial" color="209,209,204" fill="1" layer="-3.00" shape="1374.249496,1239.689728 1374.178439,1231.745193 1417.364374,1231.385456 1417.248692,1239.072016 1374.249496,1239.689728"/>
    <poly id="142502824" type="landuse.retail" color="194,194,130" fill="1" layer="-3.00" shape="1490.542754,1275.732401 1490.402463,1260.941675 1447.551862,1261.339384 1447.362972,1276.901747 1490.542754,1275.732401"/>