<?xml version="1.0" encoding="UTF-8"?>

<!-- generated on Fri Sep 20 10:07:39 2019 by Eclipse SUMO netconvert Version 1.2.0
<configuration xmlns:xsi="http://www.w3.org/2001/XMLSchema-instance" xsi:noNamespaceSchemaLocation="http://sumo.dlr.de/xsd/netconvertConfiguration.xsd">

    <input>
        <type-files value="/usr/share/sumo/data/typemap/osmNetconvert.typ.xml"/>
        <osm-files value="osm_bbox.osm.xml"/>
    </input>

    <output>
        <output-file value="osm.net.xml"/>
        <output.street-names value="true"/>
        <output.original-names value="true"/>
    </output>

    <projection>
        <proj.utm value="true"/>
    </projection>

    <processing>
        <geometry.remove value="true"/>
        <roundabouts.guess value="true"/>
    </processing>

    <tls_building>
        <tls.discard-simple value="true"/>
        <tls.join value="true"/>
        <tls.guess-signals value="true"/>
        <tls.default-type value="actuated"/>
    </tls_building>

    <ramp_guessing>
        <ramps.guess value="true"/>
    </ramp_guessing>

    <junctions>
        <junctions.join value="true"/>
        <junctions.corner-detail value="5"/>
    </junctions>

    <report>
        <verbose value="true"/>
    </report>

</configuration>
-->

<net version="1.1" junctionCornerDetail="5" limitTurnSpeed="5.50" xmlns:xsi="http://www.w3.org/2001/XMLSchema-instance" xsi:noNamespaceSchemaLocation="http://sumo.dlr.de/xsd/net_file.xsd">

    <location netOffset="-633360.43,-3925331.46" convBoundary="0.00,0.00,1640.70,1983.29" origBoundary="-97.530043,35.462402,-97.511930,35.480232" projParameter="+proj=utm +zone=14 +ellps=WGS84 +datum=WGS84 +units=m +no_defs"/>

    <type id="highway.bridleway" priority="1" numLanes="1" speed="2.78" allow="pedestrian" oneway="1" width="2.00"/>
    <type id="highway.bus_guideway" priority="1" numLanes="1" speed="27.78" allow="bus" oneway="1"/>
    <type id="highway.cycleway" priority="1" numLanes="1" speed="8.33" allow="bicycle" oneway="0" width="1.00"/>
    <type id="highway.footway" priority="1" numLanes="1" speed="2.78" allow="pedestrian" oneway="1" width="2.00"/>
    <type id="highway.ford" priority="1" numLanes="1" speed="2.78" allow="army" oneway="0"/>
    <type id="highway.living_street" priority="2" numLanes="1" speed="2.78" disallow="tram rail_urban rail rail_electric ship" oneway="0"/>
    <type id="highway.motorway" priority="14" numLanes="2" speed="39.44" allow="private emergency authority army vip passenger hov taxi bus coach delivery truck trailer motorcycle evehicle custom1 custom2" oneway="1"/>
    <type id="highway.motorway_link" priority="9" numLanes="1" speed="22.22" allow="private emergency authority army vip passenger hov taxi bus coach delivery truck trailer motorcycle evehicle custom1 custom2" oneway="1"/>
    <type id="highway.path" priority="1" numLanes="1" speed="2.78" allow="bicycle pedestrian" oneway="1" width="2.00"/>
    <type id="highway.pedestrian" priority="1" numLanes="1" speed="2.78" allow="pedestrian" oneway="1" width="2.00"/>
    <type id="highway.primary" priority="12" numLanes="2" speed="27.78" disallow="tram rail_urban rail rail_electric ship" oneway="0"/>
    <type id="highway.primary_link" priority="7" numLanes="1" speed="22.22" disallow="tram rail_urban rail rail_electric ship" oneway="0"/>
    <type id="highway.raceway" priority="15" numLanes="2" speed="83.33" allow="vip" oneway="0"/>
    <type id="highway.residential" priority="3" numLanes="1" speed="13.89" disallow="tram rail_urban rail rail_electric ship" oneway="0"/>
    <type id="highway.secondary" priority="11" numLanes="2" speed="27.78" disallow="tram rail_urban rail rail_electric ship" oneway="0"/>
    <type id="highway.secondary_link" priority="6" numLanes="1" speed="22.22" disallow="tram rail_urban rail rail_electric ship" oneway="0"/>
    <type id="highway.service" priority="1" numLanes="1" speed="5.56" allow="delivery bicycle pedestrian" oneway="0"/>
    <type id="highway.stairs" priority="1" numLanes="1" speed="1.39" allow="pedestrian" oneway="1" width="2.00"/>
    <type id="highway.step" priority="1" numLanes="1" speed="1.39" allow="pedestrian" oneway="1" width="2.00"/>
    <type id="highway.steps" priority="1" numLanes="1" speed="1.39" allow="pedestrian" oneway="1" width="2.00"/>
    <type id="highway.tertiary" priority="10" numLanes="1" speed="22.22" disallow="tram rail_urban rail rail_electric ship" oneway="0"/>
    <type id="highway.tertiary_link" priority="5" numLanes="1" speed="22.22" disallow="tram rail_urban rail rail_electric ship" oneway="0"/>
    <type id="highway.track" priority="1" numLanes="1" speed="5.56" disallow="tram rail_urban rail rail_electric ship" oneway="0"/>
    <type id="highway.trunk" priority="13" numLanes="2" speed="27.78" disallow="tram rail_urban rail rail_electric bicycle pedestrian ship" oneway="0"/>
    <type id="highway.trunk_link" priority="8" numLanes="1" speed="22.22" disallow="tram rail_urban rail rail_electric bicycle pedestrian ship" oneway="0"/>
    <type id="highway.unclassified" priority="4" numLanes="1" speed="13.89" disallow="tram rail_urban rail rail_electric ship" oneway="0"/>
    <type id="highway.unsurfaced" priority="1" numLanes="1" speed="8.33" disallow="tram rail_urban rail rail_electric ship" oneway="0"/>
    <type id="railway.light_rail" priority="19" numLanes="1" speed="27.78" allow="rail_urban" oneway="1"/>
    <type id="railway.preserved" priority="16" numLanes="1" speed="27.78" allow="rail" oneway="1"/>
    <type id="railway.rail" priority="20" numLanes="1" speed="83.33" allow="rail rail_electric" oneway="1"/>
    <type id="railway.subway" priority="18" numLanes="1" speed="27.78" allow="rail_urban" oneway="1"/>
    <type id="railway.tram" priority="17" numLanes="1" speed="13.89" allow="tram" oneway="1"/>

    <edge id=":1103971026_0" function="internal">
        <lane id=":1103971026_0_0" index="0" disallow="tram rail_urban rail rail_electric ship" speed="11.18" length="9.40" shape="1251.29,1237.83 1251.21,1228.43"/>
    </edge>
    <edge id=":1103971026_1" function="internal">
        <lane id=":1103971026_1_0" index="0" allow="delivery bicycle pedestrian" speed="6.88" length="5.07" shape="1251.29,1237.83 1251.66,1235.08 1252.83,1233.10"/>
    </edge>
    <edge id=":1103971026_2" function="internal">
        <lane id=":1103971026_2_0" index="0" disallow="tram rail_urban rail rail_electric ship" speed="3.65" length="2.34" shape="1251.29,1237.83 1252.08,1236.62 1252.88,1236.21"/>
    </edge>
    <edge id=":1103971026_9" function="internal">
        <lane id=":1103971026_9_0" index="0" allow="delivery bicycle pedestrian" speed="6.88" length="5.10" shape="1252.83,1233.10 1254.79,1231.90 1257.55,1231.46"/>
    </edge>
    <edge id=":1103971026_10" function="internal">
        <lane id=":1103971026_10_0" index="0" disallow="tram rail_urban rail rail_electric ship" speed="3.65" length="2.34" shape="1252.88,1236.21 1253.68,1236.61 1254.49,1237.80"/>
    </edge>
    <edge id=":1103971026_3" function="internal">
        <lane id=":1103971026_3_0" index="0" disallow="tram rail_urban rail rail_electric ship" speed="5.07" length="5.03" shape="1257.60,1234.66 1256.23,1234.88 1255.26,1235.47 1254.68,1236.45 1254.49,1237.80"/>
    </edge>
    <edge id=":1103971026_4" function="internal">
        <lane id=":1103971026_4_0" index="0" disallow="tram rail_urban rail rail_electric ship" speed="6.86" length="10.20" shape="1257.60,1234.66 1254.83,1234.31 1252.84,1233.15 1251.63,1231.19 1251.21,1228.43"/>
    </edge>
    <edge id=":1103971026_5" function="internal">
        <lane id=":1103971026_5_0" index="0" allow="delivery bicycle pedestrian" speed="3.65" length="4.67" shape="1257.60,1234.66 1256.39,1233.88 1255.98,1233.09 1256.36,1232.28 1257.55,1231.46"/>
    </edge>
    <edge id=":1103971026_6" function="internal">
        <lane id=":1103971026_6_0" index="0" allow="delivery bicycle pedestrian" speed="5.03" length="5.01" shape="1254.41,1228.40 1254.62,1229.76 1255.21,1230.72 1256.19,1231.29 1257.55,1231.46"/>
    </edge>
    <edge id=":1103971026_7" function="internal">
        <lane id=":1103971026_7_0" index="0" disallow="tram rail_urban rail rail_electric ship" speed="11.18" length="9.40" shape="1254.41,1228.40 1254.49,1237.80"/>
    </edge>
    <edge id=":1103971026_8" function="internal">
        <lane id=":1103971026_8_0" index="0" disallow="tram rail_urban rail rail_electric ship" speed="3.65" length="2.34" shape="1254.41,1228.40 1253.62,1229.61 1252.83,1230.01"/>
    </edge>
    <edge id=":1103971026_11" function="internal">
        <lane id=":1103971026_11_0" index="0" disallow="tram rail_urban rail rail_electric ship" speed="3.65" length="2.34" shape="1252.83,1230.01 1252.02,1229.62 1251.21,1228.43"/>
    </edge>
    <edge id=":1139607843_0" function="internal">
        <lane id=":1139607843_0_0" index="0" allow="delivery bicycle pedestrian" speed="5.07" length="5.04" shape="1256.18,1585.95 1255.97,1584.60 1255.37,1583.64 1254.37,1583.06 1252.99,1582.88"/>
    </edge>
    <edge id=":1139607843_1" function="internal">
        <lane id=":1139607843_1_0" index="0" disallow="tram rail_urban rail rail_electric ship" speed="11.18" length="9.41" shape="1256.18,1585.95 1256.03,1576.54"/>
    </edge>
    <edge id=":1139607843_2" function="internal">
        <lane id=":1139607843_2_0" index="0" allow="delivery bicycle pedestrian" speed="6.87" length="2.04" shape="1256.18,1585.95 1256.45,1583.92"/>
    </edge>
    <edge id=":1139607843_3" function="internal">
        <lane id=":1139607843_3_0" index="0" disallow="tram rail_urban rail rail_electric ship" speed="3.65" length="2.34" shape="1256.18,1585.95 1256.97,1584.74 1257.76,1584.33"/>
    </edge>
    <edge id=":1139607843_16" function="internal">
        <lane id=":1139607843_16_0" index="0" allow="delivery bicycle pedestrian" speed="6.87" length="8.10" shape="1256.45,1583.92 1256.54,1583.20 1257.70,1581.22 1259.65,1580.01 1262.39,1579.57"/>
    </edge>
    <edge id=":1139607843_17" function="internal">
        <lane id=":1139607843_17_0" index="0" disallow="tram rail_urban rail rail_electric ship" speed="3.65" length="2.34" shape="1257.76,1584.33 1258.57,1584.72 1259.38,1585.91"/>
    </edge>
    <edge id=":1139607843_4" function="internal">
        <lane id=":1139607843_4_0" index="0" disallow="tram rail_urban rail rail_electric ship" speed="5.05" length="5.00" shape="1262.44,1582.77 1261.09,1582.99 1260.13,1583.58 1259.56,1584.56 1259.38,1585.91"/>
    </edge>
    <edge id=":1139607843_5" function="internal">
        <lane id=":1139607843_5_0" index="0" allow="delivery bicycle pedestrian" speed="5.56" length="9.45" shape="1262.44,1582.77 1252.99,1582.88"/>
    </edge>
    <edge id=":1139607843_6" function="internal">
        <lane id=":1139607843_6_0" index="0" disallow="tram rail_urban rail rail_electric ship" speed="6.88" length="10.19" shape="1262.44,1582.77 1259.69,1582.42 1257.70,1581.26 1256.48,1579.30 1256.03,1576.54"/>
    </edge>
    <edge id=":1139607843_7" function="internal">
        <lane id=":1139607843_7_0" index="0" allow="delivery bicycle pedestrian" speed="3.65" length="4.67" shape="1262.44,1582.77 1261.23,1581.99 1260.82,1581.20 1261.20,1580.39 1262.39,1579.57"/>
    </edge>
    <edge id=":1139607843_8" function="internal">
        <lane id=":1139607843_8_0" index="0" allow="delivery bicycle pedestrian" speed="5.06" length="5.04" shape="1259.23,1576.47 1259.45,1577.85 1260.05,1578.82 1261.03,1579.40 1262.39,1579.57"/>
    </edge>
    <edge id=":1139607843_9" function="internal">
        <lane id=":1139607843_9_0" index="0" disallow="tram rail_urban rail rail_electric ship" speed="11.18" length="9.44" shape="1259.23,1576.47 1259.38,1585.91"/>
    </edge>
    <edge id=":1139607843_10" function="internal">
        <lane id=":1139607843_10_0" index="0" allow="delivery bicycle pedestrian" speed="6.85" length="2.08" shape="1259.23,1576.47 1258.98,1578.54"/>
    </edge>
    <edge id=":1139607843_11" function="internal">
        <lane id=":1139607843_11_0" index="0" disallow="tram rail_urban rail rail_electric ship" speed="3.65" length="2.34" shape="1259.23,1576.47 1258.46,1577.69 1257.67,1578.10"/>
    </edge>
    <edge id=":1139607843_18" function="internal">
        <lane id=":1139607843_18_0" index="0" allow="delivery bicycle pedestrian" speed="6.85" length="8.15" shape="1258.98,1578.54 1258.89,1579.26 1257.74,1581.26 1255.77,1582.46 1252.99,1582.88"/>
    </edge>
    <edge id=":1139607843_19" function="internal">
        <lane id=":1139607843_19_0" index="0" disallow="tram rail_urban rail rail_electric ship" speed="3.65" length="2.34" shape="1257.67,1578.10 1256.86,1577.72 1256.03,1576.54"/>
    </edge>
    <edge id=":1139607843_12" function="internal">
        <lane id=":1139607843_12_0" index="0" disallow="tram rail_urban rail rail_electric ship" speed="5.02" length="5.02" shape="1252.97,1579.68 1254.34,1579.47 1255.30,1578.88 1255.87,1577.90 1256.03,1576.54"/>
    </edge>
    <edge id=":1139607843_13" function="internal">
        <lane id=":1139607843_13_0" index="0" allow="delivery bicycle pedestrian" speed="5.56" length="9.42" shape="1252.97,1579.68 1262.39,1579.57"/>
    </edge>
    <edge id=":1139607843_14" function="internal">
        <lane id=":1139607843_14_0" index="0" disallow="tram rail_urban rail rail_electric ship" speed="6.88" length="10.19" shape="1252.97,1579.68 1255.75,1580.05 1257.74,1581.22 1258.95,1583.17 1259.38,1585.91"/>
    </edge>
    <edge id=":1139607843_15" function="internal">
        <lane id=":1139607843_15_0" index="0" allow="delivery bicycle pedestrian" speed="3.65" length="4.67" shape="1252.97,1579.68 1254.18,1580.47 1254.58,1581.27 1254.19,1582.07 1252.99,1582.88"/>
    </edge>
    <edge id=":1139608042_0" function="internal">
        <lane id=":1139608042_0_0" index="0" disallow="tram rail_urban rail rail_electric ship" speed="5.01" length="5.03" shape="1372.88,1410.17 1372.67,1408.80 1372.07,1407.84 1371.09,1407.29 1369.71,1407.14"/>
    </edge>
    <edge id=":1139608042_1" function="internal">
        <lane id=":1139608042_1_0" index="0" allow="delivery bicycle pedestrian" speed="5.56" length="9.49" shape="1372.88,1410.17 1372.75,1400.69"/>
    </edge>
    <edge id=":1139608042_2" function="internal">
        <lane id=":1139608042_2_0" index="0" disallow="tram rail_urban rail rail_electric ship" speed="6.92" length="10.25" shape="1372.88,1410.17 1373.25,1407.38 1374.41,1405.37 1376.37,1404.13 1379.12,1403.67"/>
    </edge>
    <edge id=":1139608042_3" function="internal">
        <lane id=":1139608042_3_0" index="0" allow="delivery bicycle pedestrian" speed="3.65" length="4.67" shape="1372.88,1410.17 1373.67,1408.97 1374.46,1408.56 1375.27,1408.95 1376.08,1410.15"/>
    </edge>
    <edge id=":1139608042_4" function="internal">
        <lane id=":1139608042_4_0" index="0" allow="delivery bicycle pedestrian" speed="5.12" length="5.14" shape="1379.19,1406.87 1377.82,1407.10 1376.84,1407.72 1376.26,1408.74 1376.08,1410.15"/>
    </edge>
    <edge id=":1139608042_5" function="internal">
        <lane id=":1139608042_5_0" index="0" disallow="tram rail_urban rail rail_electric ship" speed="11.18" length="9.48" shape="1379.19,1406.87 1369.71,1407.14"/>
    </edge>
    <edge id=":1139608042_6" function="internal">
        <lane id=":1139608042_6_0" index="0" allow="delivery bicycle pedestrian" speed="6.86" length="2.12" shape="1379.19,1406.87 1377.08,1406.61"/>
    </edge>
    <edge id=":1139608042_7" function="internal">
        <lane id=":1139608042_7_0" index="0" disallow="tram rail_urban rail rail_electric ship" speed="3.65" length="2.34" shape="1379.19,1406.87 1377.97,1406.09 1377.55,1405.30"/>
    </edge>
    <edge id=":1139608042_16" function="internal">
        <lane id=":1139608042_16_0" index="0" allow="delivery bicycle pedestrian" speed="6.86" length="8.06" shape="1377.08,1406.61 1376.42,1406.53 1374.42,1405.39 1373.20,1403.45 1372.75,1400.69"/>
    </edge>
    <edge id=":1139608042_17" function="internal">
        <lane id=":1139608042_17_0" index="0" disallow="tram rail_urban rail rail_electric ship" speed="3.65" length="2.34" shape="1377.55,1405.30 1377.94,1404.49 1379.12,1403.67"/>
    </edge>
    <edge id=":1139608042_8" function="internal">
        <lane id=":1139608042_8_0" index="0" disallow="tram rail_urban rail rail_electric ship" speed="5.04" length="5.01" shape="1375.95,1400.63 1376.17,1401.99 1376.77,1402.94 1377.75,1403.50 1379.12,1403.67"/>
    </edge>
    <edge id=":1139608042_9" function="internal">
        <lane id=":1139608042_9_0" index="0" allow="delivery bicycle pedestrian" speed="5.56" length="9.52" shape="1375.95,1400.63 1376.08,1410.15"/>
    </edge>
    <edge id=":1139608042_10" function="internal">
        <lane id=":1139608042_10_0" index="0" disallow="tram rail_urban rail rail_electric ship" speed="6.93" length="10.25" shape="1375.95,1400.63 1375.61,1403.40 1374.45,1405.40 1372.48,1406.65 1369.71,1407.14"/>
    </edge>
    <edge id=":1139608042_11" function="internal">
        <lane id=":1139608042_11_0" index="0" allow="delivery bicycle pedestrian" speed="3.65" length="4.67" shape="1375.95,1400.63 1375.18,1401.84 1374.38,1402.26 1373.58,1401.87 1372.75,1400.69"/>
    </edge>
    <edge id=":1139608042_12" function="internal">
        <lane id=":1139608042_12_0" index="0" allow="delivery bicycle pedestrian" speed="5.13" length="5.15" shape="1369.60,1403.94 1371.00,1403.70 1371.99,1403.07 1372.58,1402.07 1372.75,1400.69"/>
    </edge>
    <edge id=":1139608042_13" function="internal">
        <lane id=":1139608042_13_0" index="0" disallow="tram rail_urban rail rail_electric ship" speed="11.18" length="9.52" shape="1369.60,1403.94 1379.12,1403.67"/>
    </edge>
    <edge id=":1139608042_14" function="internal">
        <lane id=":1139608042_14_0" index="0" allow="delivery bicycle pedestrian" speed="6.84" length="2.18" shape="1369.60,1403.94 1371.77,1404.17"/>
    </edge>
    <edge id=":1139608042_15" function="internal">
        <lane id=":1139608042_15_0" index="0" disallow="tram rail_urban rail rail_electric ship" speed="3.65" length="2.34" shape="1369.60,1403.94 1370.83,1404.70 1371.26,1405.48"/>
    </edge>
    <edge id=":1139608042_18" function="internal">
        <lane id=":1139608042_18_0" index="0" allow="delivery bicycle pedestrian" speed="6.84" length="8.11" shape="1371.77,1404.17 1372.42,1404.25 1374.43,1405.38 1375.65,1407.35 1376.08,1410.15"/>
    </edge>
    <edge id=":1139608042_19" function="internal">
        <lane id=":1139608042_19_0" index="0" disallow="tram rail_urban rail rail_electric ship" speed="3.65" length="2.34" shape="1371.26,1405.48 1370.88,1406.30 1369.71,1407.14"/>
    </edge>
    <edge id=":1139608048_0" function="internal">
        <lane id=":1139608048_0_0" index="0" allow="delivery bicycle pedestrian" speed="5.04" length="5.00" shape="1369.84,1235.93 1369.62,1234.58 1369.03,1233.62 1368.05,1233.05 1366.69,1232.88"/>
    </edge>
    <edge id=":1139608048_1" function="internal">
        <lane id=":1139608048_1_0" index="0" allow="delivery bicycle pedestrian" speed="5.56" length="9.40" shape="1369.84,1235.93 1369.70,1226.54"/>
    </edge>
    <edge id=":1139608048_2" function="internal">
        <lane id=":1139608048_2_0" index="0" allow="delivery bicycle pedestrian" speed="3.65" length="4.67" shape="1369.84,1235.93 1370.62,1234.72 1371.41,1234.31 1372.22,1234.70 1373.04,1235.89"/>
    </edge>
    <edge id=":1139608048_3" function="internal">
        <lane id=":1139608048_3_0" index="0" allow="delivery bicycle pedestrian" speed="5.56" length="9.40" shape="1372.90,1226.49 1373.04,1235.89"/>
    </edge>
    <edge id=":1139608048_4" function="internal">
        <lane id=":1139608048_4_0" index="0" allow="delivery bicycle pedestrian" speed="5.56" length="10.16" shape="1372.90,1226.49 1372.55,1229.25 1371.39,1231.23 1369.44,1232.44 1366.69,1232.88"/>
    </edge>
    <edge id=":1139608048_5" function="internal">
        <lane id=":1139608048_5_0" index="0" allow="delivery bicycle pedestrian" speed="3.65" length="4.67" shape="1372.90,1226.49 1372.12,1227.70 1371.33,1228.11 1370.52,1227.72 1369.70,1226.54"/>
    </edge>
    <edge id=":1139608048_6" function="internal">
        <lane id=":1139608048_6_0" index="0" allow="delivery bicycle pedestrian" speed="5.05" length="5.01" shape="1366.64,1229.68 1368.00,1229.47 1368.96,1228.87 1369.53,1227.89 1369.70,1226.54"/>
    </edge>
    <edge id=":1139608048_7" function="internal">
        <lane id=":1139608048_7_0" index="0" allow="delivery bicycle pedestrian" speed="5.56" length="10.17" shape="1366.64,1229.68 1369.40,1230.03 1371.39,1231.18 1372.60,1233.13 1373.04,1235.89"/>
    </edge>
    <edge id=":1139608048_8" function="internal">
        <lane id=":1139608048_8_0" index="0" allow="delivery bicycle pedestrian" speed="3.65" length="4.67" shape="1366.64,1229.68 1367.85,1230.46 1368.26,1231.26 1367.88,1232.06 1366.69,1232.88"/>
    </edge>
    <edge id=":1139608127_0" function="internal">
        <lane id=":1139608127_0_0" index="0" disallow="tram rail_urban rail rail_electric ship" speed="5.03" length="5.02" shape="1493.71,1407.18 1493.49,1405.82 1492.89,1404.86 1491.90,1404.30 1490.53,1404.15"/>
    </edge>
    <edge id=":1139608127_1" function="internal">
        <lane id=":1139608127_1_0" index="0" allow="delivery bicycle pedestrian" speed="5.56" length="9.44" shape="1493.71,1407.18 1493.57,1397.74"/>
    </edge>
    <edge id=":1139608127_2" function="internal">
        <lane id=":1139608127_2_0" index="0" disallow="tram rail_urban rail rail_electric ship" speed="6.85" length="10.23" shape="1493.71,1407.18 1494.06,1404.39 1495.21,1402.39 1497.18,1401.19 1499.96,1400.78"/>
    </edge>
    <edge id=":1139608127_3" function="internal">
        <lane id=":1139608127_3_0" index="0" allow="delivery bicycle pedestrian" speed="3.65" length="4.67" shape="1493.71,1407.18 1494.49,1405.96 1495.28,1405.55 1496.09,1405.93 1496.91,1407.11"/>
    </edge>
    <edge id=":1139608127_4" function="internal">
        <lane id=":1139608127_4_0" index="0" allow="delivery bicycle pedestrian" speed="5.02" length="5.02" shape="1499.97,1403.98 1498.61,1404.18 1497.65,1404.77 1497.08,1405.75 1496.91,1407.11"/>
    </edge>
    <edge id=":1139608127_5" function="internal">
        <lane id=":1139608127_5_0" index="0" disallow="tram rail_urban rail rail_electric ship" speed="11.18" length="9.44" shape="1499.97,1403.98 1490.53,1404.15"/>
    </edge>
    <edge id=":1139608127_6" function="internal">
        <lane id=":1139608127_6_0" index="0" allow="delivery bicycle pedestrian" speed="6.88" length="2.05" shape="1499.97,1403.98 1497.95,1403.70"/>
    </edge>
    <edge id=":1139608127_7" function="internal">
        <lane id=":1139608127_7_0" index="0" disallow="tram rail_urban rail rail_electric ship" speed="3.65" length="2.34" shape="1499.97,1403.98 1498.77,1403.18 1498.37,1402.38"/>
    </edge>
    <edge id=":1139608127_16" function="internal">
        <lane id=":1139608127_16_0" index="0" allow="delivery bicycle pedestrian" speed="6.88" length="8.14" shape="1497.95,1403.70 1497.20,1403.60 1495.20,1402.43 1493.99,1400.48 1493.57,1397.74"/>
    </edge>
    <edge id=":1139608127_17" function="internal">
        <lane id=":1139608127_17_0" index="0" disallow="tram rail_urban rail rail_electric ship" speed="3.65" length="2.34" shape="1498.37,1402.38 1498.76,1401.58 1499.96,1400.78"/>
    </edge>
    <edge id=":1139608127_8" function="internal">
        <lane id=":1139608127_8_0" index="0" disallow="tram rail_urban rail rail_electric ship" speed="5.07" length="5.05" shape="1496.77,1397.70 1496.98,1399.05 1497.58,1400.02 1498.57,1400.59 1499.96,1400.78"/>
    </edge>
    <edge id=":1139608127_9" function="internal">
        <lane id=":1139608127_9_0" index="0" allow="delivery bicycle pedestrian" speed="5.56" length="9.41" shape="1496.77,1397.70 1496.91,1407.11"/>
    </edge>
    <edge id=":1139608127_10" function="internal">
        <lane id=":1139608127_10_0" index="0" disallow="tram rail_urban rail rail_electric ship" speed="6.92" length="10.18" shape="1496.77,1397.70 1496.40,1400.45 1495.24,1402.44 1493.29,1403.67 1490.53,1404.15"/>
    </edge>
    <edge id=":1139608127_11" function="internal">
        <lane id=":1139608127_11_0" index="0" allow="delivery bicycle pedestrian" speed="3.65" length="4.67" shape="1496.77,1397.70 1495.98,1398.91 1495.18,1399.32 1494.38,1398.93 1493.57,1397.74"/>
    </edge>
    <edge id=":1139608127_12" function="internal">
        <lane id=":1139608127_12_0" index="0" allow="delivery bicycle pedestrian" speed="5.12" length="5.10" shape="1490.43,1400.96 1491.81,1400.72 1492.80,1400.10 1493.38,1399.11 1493.57,1397.74"/>
    </edge>
    <edge id=":1139608127_13" function="internal">
        <lane id=":1139608127_13_0" index="0" disallow="tram rail_urban rail rail_electric ship" speed="11.18" length="9.53" shape="1490.43,1400.96 1499.96,1400.78"/>
    </edge>
    <edge id=":1139608127_14" function="internal">
        <lane id=":1139608127_14_0" index="0" allow="delivery bicycle pedestrian" speed="6.85" length="2.14" shape="1490.43,1400.96 1492.55,1401.19"/>
    </edge>
    <edge id=":1139608127_15" function="internal">
        <lane id=":1139608127_15_0" index="0" disallow="tram rail_urban rail rail_electric ship" speed="3.65" length="2.34" shape="1490.43,1400.96 1491.65,1401.72 1492.08,1402.50"/>
    </edge>
    <edge id=":1139608127_18" function="internal">
        <lane id=":1139608127_18_0" index="0" allow="delivery bicycle pedestrian" speed="6.85" length="8.09" shape="1492.55,1401.19 1493.22,1401.26 1495.23,1402.39 1496.46,1404.34 1496.91,1407.11"/>
    </edge>
    <edge id=":1139608127_19" function="internal">
        <lane id=":1139608127_19_0" index="0" disallow="tram rail_urban rail rail_electric ship" speed="3.65" length="2.34" shape="1492.08,1402.50 1491.70,1403.32 1490.53,1404.15"/>
    </edge>
    <edge id=":1139608358_0" function="internal">
        <lane id=":1139608358_0_0" index="0" allow="delivery bicycle pedestrian" speed="3.65" length="4.67" shape="1503.64,1867.15 1502.86,1868.36 1502.06,1868.77 1501.26,1868.38 1500.44,1867.20"/>
    </edge>
    <edge id=":1139608394_0" function="internal">
        <lane id=":1139608394_0_0" index="0" allow="delivery bicycle pedestrian" speed="5.04" length="5.00" shape="1374.67,1583.97 1374.46,1582.61 1373.86,1581.65 1372.89,1581.09 1371.52,1580.92"/>
    </edge>
    <edge id=":1139608394_1" function="internal">
        <lane id=":1139608394_1_0" index="0" allow="delivery bicycle pedestrian" speed="5.56" length="9.41" shape="1374.67,1583.97 1374.52,1574.56"/>
    </edge>
    <edge id=":1139608394_2" function="internal">
        <lane id=":1139608394_2_0" index="0" allow="delivery bicycle pedestrian" speed="3.65" length="4.67" shape="1374.67,1583.97 1375.46,1582.76 1376.25,1582.35 1377.06,1582.73 1377.87,1583.92"/>
    </edge>
    <edge id=":1139608394_3" function="internal">
        <lane id=":1139608394_3_0" index="0" allow="delivery bicycle pedestrian" speed="5.56" length="9.42" shape="1377.72,1574.51 1377.87,1583.92"/>
    </edge>
    <edge id=":1139608394_4" function="internal">
        <lane id=":1139608394_4_0" index="0" allow="delivery bicycle pedestrian" speed="5.56" length="10.17" shape="1377.72,1574.51 1377.38,1577.27 1376.23,1579.26 1374.28,1580.48 1371.52,1580.92"/>
    </edge>
    <edge id=":1139608394_5" function="internal">
        <lane id=":1139608394_5_0" index="0" allow="delivery bicycle pedestrian" speed="3.65" length="4.67" shape="1377.72,1574.51 1376.94,1575.72 1376.15,1576.13 1375.34,1575.75 1374.52,1574.56"/>
    </edge>
    <edge id=":1139608394_6" function="internal">
        <lane id=":1139608394_6_0" index="0" allow="delivery bicycle pedestrian" speed="5.04" length="5.01" shape="1371.47,1577.72 1372.83,1577.50 1373.79,1576.90 1374.35,1575.92 1374.52,1574.56"/>
    </edge>
    <edge id=":1139608394_7" function="internal">
        <lane id=":1139608394_7_0" index="0" allow="delivery bicycle pedestrian" speed="5.56" length="10.17" shape="1371.47,1577.72 1374.24,1578.06 1376.23,1579.21 1377.44,1581.17 1377.87,1583.92"/>
    </edge>
    <edge id=":1139608394_8" function="internal">
        <lane id=":1139608394_8_0" index="0" allow="delivery bicycle pedestrian" speed="3.65" length="4.67" shape="1371.47,1577.72 1372.68,1578.50 1373.10,1579.29 1372.71,1580.10 1371.52,1580.92"/>
    </edge>
    <edge id=":1139608450_0" function="internal">
        <lane id=":1139608450_0_0" index="0" allow="delivery bicycle pedestrian" speed="3.65" length="4.67" shape="1380.96,1818.65 1380.18,1819.86 1379.39,1820.28 1378.58,1819.89 1377.76,1818.70"/>
    </edge>
    <edge id=":1139608462_0" function="internal">
        <lane id=":1139608462_0_0" index="0" disallow="tram rail_urban rail rail_electric ship" speed="5.03" length="5.02" shape="1495.92,1524.07 1495.72,1522.71 1495.13,1521.74 1494.15,1521.18 1492.78,1521.00"/>
    </edge>
    <edge id=":1139608462_1" function="internal">
        <lane id=":1139608462_1_0" index="0" allow="delivery bicycle pedestrian" speed="5.56" length="9.42" shape="1495.92,1524.07 1495.81,1514.65"/>
    </edge>
    <edge id=":1139608462_2" function="internal">
        <lane id=":1139608462_2_0" index="0" disallow="tram rail_urban rail rail_electric ship" speed="6.90" length="10.19" shape="1495.92,1524.07 1496.30,1521.30 1497.46,1519.30 1499.42,1518.09 1502.16,1517.65"/>
    </edge>
    <edge id=":1139608462_3" function="internal">
        <lane id=":1139608462_3_0" index="0" allow="delivery bicycle pedestrian" speed="3.65" length="4.67" shape="1495.92,1524.07 1496.71,1522.87 1497.51,1522.46 1498.31,1522.86 1499.12,1524.06"/>
    </edge>
    <edge id=":1139608462_4" function="internal">
        <lane id=":1139608462_4_0" index="0" allow="delivery bicycle pedestrian" speed="5.09" length="5.07" shape="1502.21,1520.85 1500.85,1521.07 1499.88,1521.68 1499.30,1522.67 1499.12,1524.06"/>
    </edge>
    <edge id=":1139608462_5" function="internal">