<?xml version="1.0" encoding="UTF-8"?>

<!-- generated on Tue Aug 20 11:14:44 2019 by Eclipse SUMO duarouter Version 1.3.0
<configuration xmlns:xsi="http://www.w3.org/2001/XMLSchema-instance" xsi:noNamespaceSchemaLocation="http://sumo.dlr.de/xsd/duarouterConfiguration.xsd">

    <input>
        <net-file value="/home/werer/sumo/tools/2019-08-20-11-14-27/osm.net.xml"/>
        <route-files value="/home/werer/sumo/tools/2019-08-20-11-14-27/osm.passenger.trips.xml"/>
    </input>

    <output>
        <output-file value="/home/werer/sumo/tools/2019-08-20-11-14-27/osm.passenger.trips.xml.tmp"/>
        <write-trips value="true"/>
    </output>

    <time>
        <begin value="0"/>
        <end value="3600.0"/>
    </time>

    <report>
        <no-warnings value="true"/>
        <ignore-errors value="true"/>
        <no-step-log value="true"/>
    </report>

</configuration>
-->

<routes xmlns:xsi="http://www.w3.org/2001/XMLSchema-instance" xsi:noNamespaceSchemaLocation="http://sumo.dlr.de/xsd/routes_file.xsd">
    <vType id="veh_passenger" vClass="passenger"/>
    <trip id="veh0" type="veh_passenger" depart="0.00" departLane="best" from="301241681#2" to="-132600840#0"/>
    <trip id="veh1" type="veh_passenger" depart="5.39" departLane="best" departSpeed="max" from="-66071370" to="-465376254"/>
    <trip id="veh2" type="veh_passenger" depart="10.79" departLane="best" departSpeed="max" from="389705411" to="340498976#5"/>
    <trip id="veh3" type="veh_passenger" depart="16.18" departLane="best" from="541295974" to="-194962997#0"/>
    <trip id="veh4" type="veh_passenger" depart="21.58" departLane="best" from="171826984#2" to="-136571494#5"/>
    <trip id="veh5" type="veh_passenger" depart="26.97" departLane="best" from="-454285423#3" to="24240246#1"/>
    <trip id="veh6" type="veh_passenger" depart="32.37" departLane="best" from="-156364553#1" to="-4412868"/>
    <trip id="veh7" type="veh_passenger" depart="37.76" departLane="best" from="30721660#3" to="24913267#3"/>
    <trip id="veh8" type="veh_passenger" depart="43.16" departLane="best" from="-4570580#1" to="289966097"/>
    <trip id="veh9" type="veh_passenger" depart="48.55" departLane="best" departSpeed="max" from="4611696#0" to="-111833185#0"/>
    <trip id="veh10" type="veh_passenger" depart="53.94" departLane="best" from="4610600" to="34848160#0"/>
    <trip id="veh12" type="veh_passenger" depart="64.73" departLane="best" from="72157174#1" to="168937986#2"/>
    <trip id="veh13" type="veh_passenger" depart="70.13" departLane="best" from="-195397541#0" to="-195397561#2"/>
    <trip id="veh14" type="veh_passenger" depart="75.52" departLane="best" from="4612981#1" to="289966845"/>
    <trip id="veh15" type="veh_passenger" depart="80.92" departLane="best" from="4611693#1" to="415280722"/>
    <trip id="veh16" type="veh_passenger" depart="86.31" departLane="best" departSpeed="max" from="164039095#0" to="24913304#2"/>
    <trip id="veh18" type="veh_passenger" depart="97.10" departLane="best" departSpeed="max" from="4773029#0" to="25294728"/>
    <trip id="veh19" type="veh_passenger" depart="102.49" departLane="best" from="340498976#8" to="-164039095#0"/>
    <trip id="veh20" type="veh_passenger" depart="107.89" departLane="best" from="-4610472#2" to="114667396#0"/>
    <trip id="veh21" type="veh_passenger" depart="113.28" departLane="best" departSpeed="max" from="-194962998#1" to="-51167934#3"/>
    <trip id="veh22" type="veh_passenger" depart="118.68" departLane="best" departSpeed="max" from="-202156991#2" to="112128418#2"/>
    <trip id="veh23" type="veh_passenger" depart="124.07" departLane="best" from="301167584#0" to="169195795#8"/>
    <trip id="veh24" type="veh_passenger" depart="129.47" departLane="best" from="158023913#1" to="-4611696#0"/>
    <trip id="veh25" type="veh_passenger" depart="134.86" departLane="best" from="-534588621" to="66071370"/>
    <trip id="veh26" type="veh_passenger" depart="140.26" departLane="best" from="30721660#1" to="292429062#3"/>
    <trip id="veh28" type="veh_passenger" depart="151.04" departLane="best" from="-310176513#1" to="176043807#0"/>
    <trip id="veh29" type="veh_passenger" depart="156.44" departLane="best" from="24243052#3" to="340498982#8"/>
    <trip id="veh30" type="veh_passenger" depart="161.83" departLane="best" departSpeed="max" from="4612973#0" to="4610355"/>
    <trip id="veh31" type="veh_passenger" depart="167.23" departLane="best" from="-4610480" to="-153698380#2"/>
    <trip id="veh32" type="veh_passenger" depart="172.62" departLane="best" from="11483007#0" to="100405009#4"/>
    <trip id="veh33" type="veh_passenger" depart="178.02" departLane="best" from="-437325051#1" to="68647306#2"/>
    <trip id="veh34" type="veh_passenger" depart="183.41" departLane="best" from="48664717#1" to="156364553#0"/>
    <trip id="veh35" type="veh_passenger" depart="188.81" departLane="best" departSpeed="max" from="30805074#0" to="19002363#1"/>
    <trip id="veh36" type="veh_passenger" depart="194.20" departLane="best" from="606078065" to="202157002#2"/>
    <trip id="veh37" type="veh_passenger" depart="199.59" departLane="best" departSpeed="max" from="-51167934#4" to="-82658674#1"/>
    <trip id="veh38" type="veh_passenger" depart="204.99" departLane="best" from="24243092#1" to="100405009#4"/>
    <trip id="veh39" type="veh_passenger" depart="210.38" departLane="best" from="24913524#2" to="54048863"/>
    <trip id="veh40" type="veh_passenger" depart="215.78" departLane="best" from="169195795#10" to="-4612969#1"/>
    <trip id="veh41" type="veh_passenger" depart="221.17" departLane="best" from="84960595" to="24240246#2"/>
    <trip id="veh42" type="veh_passenger" depart="226.57" departLane="best" departSpeed="max" from="-195104960#3" to="-164039095#0"/>
    <trip id="veh43" type="veh_passenger" depart="231.96" departLane="best" from="-23121445#4" to="30721660#3"/>
    <trip id="veh44" type="veh_passenger" depart="237.36" departLane="best" from="4610362#0" to="194963395"/>
    <trip id="veh45" type="veh_passenger" depart="242.75" departLane="best" from="83517336#4" to="24243052#1"/>
    <trip id="veh46" type="veh_passenger" depart="248.14" departLane="best" from="82649618#1" to="465398529#1"/>
    <trip id="veh49" type="veh_passenger" depart="264.33" departLane="best" from="-534588621" to="310176513#2"/>
    <trip id="veh50" type="veh_passenger" depart="269.72" departLane="best" from="194069450#0" to="81112790#1"/>
    <trip id="veh51" type="veh_passenger" depart="275.12" departLane="best" from="48664717#1" to="100405009#4"/>
    <trip id="veh52" type="veh_passenger" depart="280.51" departLane="best" from="23013165#1" to="-43156728#0"/>
    <trip id="veh53" type="veh_passenger" depart="285.91" departLane="best" from="60333313" to="478432725"/>
    <trip id="veh54" type="veh_passenger" depart="291.30" departLane="best" departSpeed="max" from="108031933#0" to="310176513#0"/>
    <trip id="veh55" type="veh_passenger" depart="296.69" departLane="best" departSpeed="max" from="24993933#0" to="-310176513#1"/>
    <trip id="veh57" type="veh_passenger" depart="307.48" departLane="best" from="-111251382#3" to="156364570#1"/>
    <trip id="veh58" type="veh_passenger" depart="312.88" departLane="best" from="-137630045" to="61584187#2"/>
    <trip id="veh59" type="veh_passenger" depart="318.27" departLane="best" from="490365295#1" to="4612968#1"/>
    <trip id="veh61" type="veh_passenger" depart="329.06" departLane="best" from="490365295#1" to="688761153"/>
    <trip id="veh62" type="veh_passenger" depart="334.46" departLane="best" departSpeed="max" from="-194963395" to="23809670#4"/>
    <trip id="veh63" type="veh_passenger" depart="339.85" departLane="best" from="-19002363#6" to="454285423#3"/>
    <trip id="veh64" type="veh_passenger" depart="345.24" departLane="best" from="43231842#1" to="-243854725#2"/>
    <trip id="veh65" type="veh_passenger" depart="350.64" departLane="best" from="195401017#3" to="24913304#1"/>
    <trip id="veh66" type="veh_passenger" depart="356.03" departLane="best" departSpeed="max" from="-51167934#4" to="4790808"/>
    <trip id="veh67" type="veh_passenger" depart="361.43" departLane="best" from="171826984#2" to="-4611696#0"/>
    <trip id="veh68" type="veh_passenger" depart="366.82" departLane="best" from="23852053#1" to="415280722"/>
    <trip id="veh69" type="veh_passenger" depart="372.22" departLane="best" departSpeed="max" from="-427637455" to="155186522"/>
    <trip id="veh71" type="veh_passenger" depart="383.01" departLane="best" from="188386313#0" to="24241797#3"/>
    <trip id="veh72" type="veh_passenger" depart="388.40" departLane="best" departSpeed="max" from="-23813206#2" to="-474362271"/>
    <trip id="veh73" type="veh_passenger" depart="393.79" departLane="best" from="139877314#1" to="289830064"/>
    <trip id="veh74" type="veh_passenger" depart="399.19" departLane="best" from="-4610524" to="-4612970#0"/>
    <trip id="veh75" type="veh_passenger" depart="404.58" departLane="best" from="-194069450#3" to="30721662#1"/>
    <trip id="veh76" type="veh_passenger" depart="409.98" departLane="best" from="-4610480" to="54781811#1"/>
    <trip id="veh77" type="veh_passenger" depart="415.37" departLane="best" from="465376254" to="-176043807#3"/>
    <trip id="veh78" type="veh_passenger" depart="420.77" departLane="best" from="-4612968#2" to="339201177#2"/>
    <trip id="veh79" type="veh_passenger" depart="426.16" departLane="best" departSpeed="max" from="628330892" to="24992428"/>
    <trip id="veh80" type="veh_passenger" depart="431.56" departLane="best" from="195401013#3" to="4610374"/>
    <trip id="veh81" type="veh_passenger" depart="436.95" departLane="best" from="4611693#1" to="-437325047#3"/>
    <trip id="veh82" type="veh_passenger" depart="442.34" departLane="best" from="171826985#1" to="22972454"/>
    <trip id="veh83" type="veh_passenger" depart="447.74" departLane="best" from="374734389#0" to="340498976#1"/>
    <trip id="veh84" type="veh_passenger" depart="453.13" departLane="best" from="82654059#0" to="-195411605#0"/>
    <trip id="veh85" type="veh_passenger" depart="458.53" departLane="best" from="169195795#2" to="168940071#1"/>
    <trip id="veh86" type="veh_passenger" depart="463.92" departLane="best" departSpeed="max" from="4773029#0" to="-84960595"/>
    <trip id="veh87" type="veh_passenger" depart="469.32" departLane="best" from="171826984#2" to="112128418#2"/>
    <trip id="veh88" type="veh_passenger" depart="474.71" departLane="best" departSpeed="max" from="-465398529#2" to="606078070#0"/>
    <trip id="veh89" type="veh_passenger" depart="480.11" departLane="best" from="19002363#1" to="465398529#1"/>
    <trip id="veh90" type="veh_passenger" depart="485.50" departLane="best" from="24242882#1" to="-165415464#1"/>
    <trip id="veh91" type="veh_passenger" depart="490.89" departLane="best" from="84960597#3" to="4612970#0"/>
    <trip id="veh92" type="veh_passenger" depart="496.29" departLane="best" from="4613308#1" to="-339201177#2"/>
    <trip id="veh93" type="veh_passenger" depart="501.68" departLane="best" from="202156995#0" to="-4611696#4"/>
    <trip id="veh94" type="veh_passenger" depart="507.08" departLane="best" from="169195795#2" to="-168940071#3"/>
    <trip id="veh95" type="veh_passenger" depart="512.47" departLane="best" departSpeed="max" from="164039095#0" to="82654059#2"/>
    <trip id="veh96" type="veh_passenger" depart="517.87" departLane="best" departSpeed="max" from="-51167934#4" to="4610362#8"/>
    <trip id="veh98" type="veh_passenger" depart="528.66" departLane="best" from="72157174#1" to="83517336#4"/>
    <trip id="veh99" type="veh_passenger" depart="534.05" departLane="best" from="24243052#1" to="370359204#2"/>
    <trip id="veh100" type="veh_passenger" depart="539.44" departLane="best" from="-28016312#0" to="128396190#4"/>
    <trip id="veh101" type="veh_passenger" depart="544.84" departLane="best" from="82649618#1" to="25294729#1"/>
    <trip id="veh102" type="veh_passenger" depart="550.23" departLane="best" from="24240246#2" to="437325048#0"/>
    <trip id="veh103" type="veh_passenger" depart="555.63" departLane="best" departSpeed="max" from="-176043807#11" to="28016312#0"/>
    <trip id="veh104" type="veh_passenger" depart="561.02" departLane="best" from="23013165#2" to="461526152#0"/>
    <trip id="veh105" type="veh_passenger" depart="566.42" departLane="best" from="-28251222#1" to="81112790#1"/>
    <trip id="veh106" type="veh_passenger" depart="571.81" departLane="best" departSpeed="max" from="-194962998#1" to="-43159545"/>
    <trip id="veh107" type="veh_passenger" depart="577.21" departLane="best" departSpeed="max" from="24914141#0" to="340498976#3"/>
    <trip id="veh108" type="veh_passenger" depart="582.60" departLane="best" from="54048862#3" to="-82658674#1"/>
    <trip id="veh110" type="veh_passenger" depart="593.39" departLane="best" from="169660686#1" to="28016312#0"/>
    <trip id="veh111" type="veh_passenger" depart="598.78" departLane="best" departSpeed="max" from="23851922" to="6228081"/>
    <trip id="veh112" type="veh_passenger" depart="604.18" departLane="best" from="-43156728#3" to="36892597#1"/>
    <trip id="veh113" type="veh_passenger" depart="609.57" departLane="best" from="-4612968#3" to="19002363#1"/>
    <trip id="veh114" type="veh_passenger" depart="614.97" departLane="best" from="310176513#3" to="136571494#1"/>
    <trip id="veh115" type="veh_passenger" depart="620.36" departLane="best" from="120675240#0" to="437325054#0"/>
    <trip id="veh116" type="veh_passenger" depart="625.76" departLane="best" from="-194962375#3" to="202157002#1"/>
    <trip id="veh117" type="veh_passenger" depart="631.15" departLane="best" from="84960597#0" to="83517336#4"/>
    <trip id="veh118" type="veh_passenger" depart="636.54" departLane="best" from="-194962375#4" to="-4611696#3"/>
    <trip id="veh119" type="veh_passenger" depart="641.94" departLane="best" departSpeed="max" from="-51167934#4" to="6227658#1"/>
    <trip id="veh120" type="veh_passenger" depart="647.33" departLane="best" from="51167934#2" to="48664717#1"/>
    <trip id="veh122" type="veh_passenger" depart="658.12" departLane="best" from="4612964#3" to="35269774#2"/>
    <trip id="veh123" type="veh_passenger" depart="663.52" departLane="best" from="24993933#1" to="82658671#1"/>
    <trip id="veh124" type="veh_passenger" depart="668.91" departLane="best" from="30721662#2" to="-111833185#0"/>
    <trip id="veh125" type="veh_passenger" depart="674.31" departLane="best" from="4611698#1" to="132600840#1"/>
    <trip id="veh126" type="veh_passenger" depart="679.70" departLane="best" from="309147331#0" to="66071370"/>
    <trip id="veh127" type="veh_passenger" depart="685.09" departLane="best" from="-24242892#5" to="-23813206#1"/>
    <trip id="veh128" type="veh_passenger" depart="690.49" departLane="best" from="-23121445#1" to="24913304#2"/>
    <trip id="veh129" type="veh_passenger" depart="695.88" departLane="best" from="-6227658#1" to="289966845"/>
    <trip id="veh130" type="veh_passenger" depart="701.28" departLane="best" from="34848160#2" to="-4610374"/>
    <trip id="veh131" type="veh_passenger" depart="706.67" departLane="best" from="202157002#1" to="54781811#1"/>
    <trip id="veh132" type="veh_passenger" depart="712.07" departLane="best" departSpeed="max" from="4612973#0" to="-195105328#0"/>
    <trip id="veh133" type="veh_passenger" depart="717.46" departLane="best" from="171826985#1" to="112128418#2"/>
    <trip id="veh134" type="veh_passenger" depart="722.86" departLane="best" from="-111833186#1" to="4592725#4"/>
    <trip id="veh135" type="veh_passenger" depart="728.25" departLane="best" departSpeed="max" from="389705411" to="24913304#1"/>
    <trip id="veh136" type="veh_passenger" depart="733.64" departLane="best" from="171826985#3" to="-111833185#1"/>
    <trip id="veh137" type="veh_passenger" depart="739.04" departLane="best" departSpeed="max" from="-194962997#1" to="51167934#1"/>
    <trip id="veh138" type="veh_passenger" depart="744.43" departLane="best" from="60333311#0" to="24913267#3"/>
    <trip id="veh139" type="veh_passenger" depart="749.83" departLane="best" from="4612964#3" to="25302636#1"/>
    <trip id="veh140" type="veh_passenger" depart="755.22" departLane="best" from="-24993933#1" to="-243854725#2"/>
    <trip id="veh142" type="veh_passenger" depart="766.01" departLane="best" from="4610362#6" to="465398529#1"/>
    <trip id="veh143" type="veh_passenger" depart="771.41" departLane="best" from="55741054" to="-4611696#0"/>
    <trip id="veh144" type="veh_passenger" depart="776.80" departLane="best" departSpeed="max" from="-465398529#2" to="-23121445#0"/>
    <trip id="veh145" type="veh_passenger" depart="782.19" departLane="best" from="4412868" to="51167934#4"/>
    <trip id="veh147" type="veh_passenger" depart="792.98" departLane="best" from="-28016312#0" to="61584187#2"/>
    <trip id="veh149" type="veh_passenger" depart="803.77" departLane="best" departSpeed="max" from="4611696#0" to="490365295#1"/>
    <trip id="veh150" type="veh_passenger" depart="809.17" departLane="best" from="-156364553#0" to="42103021"/>
    <trip id="veh151" type="veh_passenger" depart="814.56" departLane="best" from="136571494#1" to="61584187#3"/>
    <trip id="veh152" type="veh_passenger" depart="819.95" departLane="best" from="4610476#2" to="4773029#1"/>
    <trip id="veh153" type="veh_passenger" depart="825.35" departLane="best" departSpeed="max" from="4611696#0" to="100405009#4"/>
    <trip id="veh154" type="veh_passenger" depart="830.74" departLane="best" from="4570580#1" to="-234463928#0"/>
    <trip id="veh155" type="veh_passenger" depart="836.14" departLane="best" from="4790808" to="465376254"/>
    <trip id="veh156" type="veh_passenger" depart="841.53" departLane="best" departSpeed="max" from="-4570580#2" to="4612961#1"/>
    <trip id="veh157" type="veh_passenger" depart="846.93" departLane="best" departSpeed="max" from="194962997#0" to="139877314#1"/>
    <trip id="veh158" type="veh_passenger" depart="852.32" departLane="best" from="4610362#5" to="-4773029#0"/>
    <trip id="veh159" type="veh_passenger" depart="857.72" departLane="best" from="-156364553#0" to="-437325051#1"/>
    <trip id="veh160" type="veh_passenger" depart="863.11" departLane="best" departSpeed="max" from="131505631#0" to="4773029#1"/>
    <trip id="veh161" type="veh_passenger" depart="868.50" departLane="best" from="82649618#0" to="112128418#2"/>
    <trip id="veh162" type="veh_passenger" depart="873.90" departLane="best" from="301241681#3" to="19002363#8"/>
    <trip id="veh163" type="veh_passenger" depart="879.29" departLane="best" from="82654055#2" to="24243107#2"/>
    <trip id="veh164" type="veh_passenger" depart="884.69" departLane="best" departSpeed="max" from="628330892" to="-23813206#1"/>
    <trip id="veh165" type="veh_passenger" depart="890.08" departLane="best" from="82649618#1" to="-43156728#0"/>
    <trip id="veh166" type="veh_passenger" depart="895.48" departLane="best" from="81112792" to="100405009#4"/>
    <trip id="veh167" type="veh_passenger" depart="900.87" departLane="best" from="-23121445#3" to="195401013#2"/>
    <trip id="veh168" type="veh_passenger" depart="906.27" departLane="best" from="370359204#2" to="156364553#0"/>
    <trip id="veh169" type="veh_passenger" depart="911.66" departLane="best" from="24992428" to="24240246#3"/>
    <trip id="veh170" type="veh_passenger" depart="917.05" departLane="best" departSpeed="max" from="165415464#0" to="251884680"/>
    <trip id="veh171" type="veh_passenger" depart="922.45" departLane="best" from="-4773029#1" to="35269774#2"/>
    <trip id="veh172" type="veh_passenger" depart="927.84" departLane="best" from="-111833185#1" to="606078070#1"/>
    <trip id="veh174" type="veh_passenger" depart="938.63" departLane="best" departSpeed="max" from="389705411" to="339201177#4"/>
    <trip id="veh175" type="veh_passenger" depart="944.03" departLane="best" from="156364559#2" to="-176043807#0"/>
    <trip id="veh176" type="veh_passenger" depart="949.42" departLane="best" from="309147331#0" to="15971197#1"/>
    <trip id="veh177" type="veh_passenger" depart="954.82" departLane="best" from="114667396#0" to="4613308#1"/>
    <trip id="veh179" type="veh_passenger" depart="965.60" departLane="best" from="112128419#1" to="194962375#1"/>
    <trip id="veh180" type="veh_passenger" depart="971.00" departLane="best" from="169195795#2" to="128396189#2"/>
    <trip id="veh181" type="veh_passenger" depart="976.39" departLane="best" from="-24241790#2" to="194963395"/>
    <trip id="veh182" type="veh_passenger" depart="981.79" departLane="best" departSpeed="max" from="628330892" to="340498976#6"/>
    <trip id="veh184" type="veh_passenger" depart="992.58" departLane="best" from="-111251382#3" to="112128419#2"/>
    <trip id="veh185" type="veh_passenger" depart="997.97" departLane="best" from="176043806#1" to="25294729#1"/>
    <trip id="veh186" type="veh_passenger" depart="1003.37" departLane="best" from="30721662#3" to="22972195#2"/>
    <trip id="veh187" type="veh_passenger" depart="1008.76" departLane="best" from="19002357#1" to="-4611696#4"/>
    <trip id="veh188" type="veh_passenger" depart="1014.15" departLane="best" from="195401013#3" to="541763974"/>
    <trip id="veh189" type="veh_passenger" depart="1019.55" departLane="best" from="4610362#6" to="-34848160#0"/>
    <trip id="veh190" type="veh_passenger" depart="1024.94" departLane="best" departSpeed="max" from="-194963395" to="24241762#1"/>
    <trip id="veh191" type="veh_passenger" depart="1030.34" departLane="best" from="292429063#1" to="164039095#1"/>
    <trip id="veh192" type="veh_passenger" depart="1035.73" departLane="best" from="4611699" to="437325054#0"/>
    <trip id="veh193" type="veh_passenger" depart="1041.13" departLane="best" from="310357283#0" to="-474362271"/>
    <trip id="veh194" type="veh_passenger" depart="1046.52" departLane="best" from="-387892378" to="-131505631#1"/>
    <trip id="veh195" type="veh_passenger" depart="1051.92" departLane="best" departSpeed="max" from="-4613293" to="23121445#3"/>
    <trip id="veh196" type="veh_passenger" depart="1057.31" departLane="best" from="4613308#2" to="-176043807#5"/>
    <trip id="veh197" type="veh_passenger" depart="1062.70" departLane="best" from="169195795#9" to="30721662#0"/>
    <trip id="veh198" type="veh_passenger" depart="1068.10" departLane="best" from="-35578576#1" to="344594961"/>
    <trip id="veh200" type="veh_passenger" depart="1078.89" departLane="best" departSpeed="max" from="30805074#0" to="-111833185#0"/>
    <trip id="veh201" type="veh_passenger" depart="1084.28" departLane="best" from="42103020#0" to="4592725#4"/>
    <trip id="veh203" type="veh_passenger" depart="1095.07" departLane="best" from="-316746323#0" to="81112790#1"/>
    <trip id="veh204" type="veh_passenger" depart="1100.47" departLane="best" from="23809670#5" to="-165415464#1"/>
    <trip id="veh205" type="veh_passenger" depart="1105.86" departLane="best" from="-465376254" to="4613308#2"/>
    <trip id="veh206" type="veh_passenger" depart="1111.25" departLane="best" from="194962375#4" to="4611699"/>
    <trip id="veh207" type="veh_passenger" depart="1116.65" departLane="best" departSpeed="max" from="24914141#0" to="77348147"/>
    <trip id="veh210" type="veh_passenger" depart="1132.83" departLane="best" from="4612964#1" to="24913267#3"/>
    <trip id="veh211" type="veh_passenger" depart="1138.23" departLane="best" from="541763975" to="43231842#0"/>
    <trip id="veh213" type="veh_passenger" depart="1149.02" departLane="best" from="43231842#1" to="24242892#2"/>
    <trip id="veh214" type="veh_passenger" depart="1154.41" departLane="best" from="289966281" to="111833186#2"/>
    <trip id="veh215" type="veh_passenger" depart="1159.80" departLane="best" from="-194962998#0" to="112128419#1"/>
    <trip id="veh216" type="veh_passenger" depart="1165.20" departLane="best" from="-606078065" to="156364559#2"/>
    <trip id="veh217" type="veh_passenger" depart="1170.59" departLane="best" from="24240246#1" to="-24993933#0"/>
    <trip id="veh218" type="veh_passenger" depart="1175.99" departLane="best" from="-4611696#4" to="344594961"/>
    <trip id="veh220" type="veh_passenger" depart="1186.78" departLane="best" from="169195795#6" to="24913267#3"/>
    <trip id="veh221" type="veh_passenger" depart="1192.17" departLane="best" from="169999355#0" to="54781811#0"/>
    <trip id="veh222" type="veh_passenger" depart="1197.57" departLane="best" from="24913519#2" to="344594961"/>
    <trip id="veh224" type="veh_passenger" depart="1208.35" departLane="best" departSpeed="max" from="165415464#0" to="-111833185#0"/>
    <trip id="veh225" type="veh_passenger" depart="1213.75" departLane="best" from="156364553#1" to="4402037#1"/>
    <trip id="veh226" type="veh_passenger" depart="1219.14" departLane="best" from="461526152#0" to="81112790#1"/>
    <trip id="veh227" type="veh_passenger" depart="1224.54" departLane="best" from="169660686#1" to="437325047#5"/>
    <trip id="veh228" type="veh_passenger" depart="1229.93" departLane="best" from="24240246#3" to="289966845"/>
    <trip id="veh229" type="veh_passenger" depart="1235.33" departLane="best" from="-4570580#1" to="-4612969#1"/>
    <trip id="veh230" type="veh_passenger" depart="1240.72" departLane="best" from="176043807#8" to="-136571494#3"/>
    <trip id="veh231" type="veh_passenger" depart="1246.12" departLane="best" from="195401006" to="-243854725#2"/>
    <trip id="veh233" type="veh_passenger" depart="1256.90" departLane="best" from="169195795#0" to="24914992#1"/>
    <trip id="veh234" type="veh_passenger" depart="1262.30" departLane="best" from="-156364553#1" to="310176513#5"/>
    <trip id="veh235" type="veh_passenger" depart="1267.69" departLane="best" departSpeed="max" from="-24242892#8" to="202817674#4"/>
    <trip id="veh236" type="veh_passenger" depart="1273.09" departLane="best" from="-169999355#2" to="176043807#0"/>
    <trip id="veh237" type="veh_passenger" depart="1278.48" departLane="best" from="-437325054#1" to="158023913#1"/>
    <trip id="veh238" type="veh_passenger" depart="1283.88" departLane="best" departSpeed="max" from="43159545" to="176043807#0"/>
    <trip id="veh239" type="veh_passenger" depart="1289.27" departLane="best" from="42103020#2" to="4612968#2"/>
    <trip id="veh240" type="veh_passenger" depart="1294.67" departLane="best" departSpeed="max" from="-465398529#2" to="-194069450#0"/>
    <trip id="veh242" type="veh_passenger" depart="1305.45" departLane="best" from="84960597#3" to="169195795#1"/>
    <trip id="veh243" type="veh_passenger" depart="1310.85" departLane="best" from="30721662#0" to="4402037#2"/>
    <trip id="veh244" type="veh_passenger" depart="1316.24" departLane="best" departSpeed="max" from="686908627" to="-454285423#0"/>
    <trip id="veh245" type="veh_passenger" depart="1321.64" departLane="best" from="-153698380#2" to="-310176513#0"/>
    <trip id="veh246" type="veh_passenger" depart="1327.03" departLane="best" departSpeed="max" from="-24241762#2" to="339201177#3"/>
    <trip id="veh247" type="veh_passenger" depart="1332.43" departLane="best" departSpeed="max" from="243854725#0" to="-4612969#0"/>
    <trip id="veh248" type="veh_passenger" depart="1337.82" departLane="best" from="340498976#1" to="4592725#1"/>
    <trip id="veh249" type="veh_passenger" depart="1343.22" departLane="best" departSpeed="max" from="-310176513#5" to="292429062#1"/>
    <trip id="veh250" type="veh_passenger" depart="1348.61" departLane="best" from="-23121445#2" to="-132600840#0"/>
    <trip id="veh251" type="veh_passenger" depart="1354.00" departLane="best" from="112128419#2" to="340498976#6"/>
    <trip id="veh252" type="veh_passenger" depart="1359.40" departLane="best" from="77348147" to="19002363#2"/>
    <trip id="veh253" type="veh_passenger" depart="1364.79" departLane="best" from="344594962" to="-176043807#9"/>
    <trip id="veh254" type="veh_passenger" depart="1370.19" departLane="best" from="318282850#2" to="30721660#3"/>
    <trip id="veh255" type="veh_passenger" depart="1375.58" departLane="best" departSpeed="max" from="-202156991#2" to="4592725#4"/>
    <trip id="veh256" type="veh_passenger" depart="1380.98" departLane="best" from="46140376#0" to="289966845"/>
    <trip id="veh257" type="veh_passenger" depart="1386.37" departLane="best" departSpeed="max" from="-23813206#2" to="82654059#0"/>
    <trip id="veh258" type="veh_passenger" depart="1391.77" departLane="best" departSpeed="max" from="454285423#0" to="169195795#0"/>
    <trip id="veh259" type="veh_passenger" depart="1397.16" departLane="best" from="176043794" to="171826984#2"/>
    <trip id="veh260" type="veh_passenger" depart="1402.55" departLane="best" from="23121445#3" to="168940071#3"/>
    <trip id="veh261" type="veh_passenger" depart="1407.95" departLane="best" from="4613308#2" to="4612964#0"/>
    <trip id="veh262" type="veh_passenger" depart="1413.34" departLane="best" from="-225400578" to="81112790#1"/>
    <trip id="veh263" type="veh_passenger" depart="1418.74" departLane="best" from="301167584#0" to="4612964#3"/>
    <trip id="veh264" type="veh_passenger" depart="1424.13" departLane="best" from="340498982#2" to="195401013#2"/>
    <trip id="veh265" type="veh_passenger" depart="1429.53" departLane="best" from="380240681#0" to="82649618#0"/>
    <trip id="veh266" type="veh_passenger" depart="1434.92" departLane="best" departSpeed="max" from="23851922" to="236092221#2"/>
    <trip id="veh267" type="veh_passenger" depart="1440.32" departLane="best" from="176043807#8" to="415280722"/>
    <trip id="veh268" type="veh_passenger" depart="1445.71" departLane="best" from="-55741054" to="46140382"/>
    <trip id="veh269" type="veh_passenger" depart="1451.10" departLane="best" from="4612964#1" to="-194962997#0"/>
    <trip id="veh271" type="veh_passenger" depart="1461.89" departLane="best" from="195397541#1" to="292429063#1"/>