<?xml version="1.0" encoding="UTF-8"?>

<!-- generated on Wed Sep 11 16:43:51 2019 by Eclipse SUMO netconvert Version 1.2.0
<configuration xmlns:xsi="http://www.w3.org/2001/XMLSchema-instance" xsi:noNamespaceSchemaLocation="http://sumo.dlr.de/xsd/netconvertConfiguration.xsd">

    <input>
        <type-files value="/usr/share/sumo/data/typemap/osmNetconvert.typ.xml"/>
        <osm-files value="osm_bbox.osm.xml"/>
    </input>

    <output>
        <output-file value="osm.net.xml"/>
        <output.street-names value="true"/>
        <output.original-names value="true"/>
    </output>

    <projection>
        <proj.utm value="true"/>
    </projection>

    <processing>
        <geometry.remove value="true"/>
        <roundabouts.guess value="true"/>
    </processing>

    <tls_building>
        <tls.discard-simple value="true"/>
        <tls.join value="true"/>
        <tls.guess-signals value="true"/>
        <tls.default-type value="actuated"/>
    </tls_building>

    <ramp_guessing>
        <ramps.guess value="true"/>
    </ramp_guessing>

    <junctions>
        <junctions.join value="true"/>
        <junctions.corner-detail value="5"/>
    </junctions>

    <report>
        <verbose value="true"/>
    </report>

</configuration>
-->

<net version="1.1" junctionCornerDetail="5" limitTurnSpeed="5.50" xmlns:xsi="http://www.w3.org/2001/XMLSchema-instance" xsi:noNamespaceSchemaLocation="http://sumo.dlr.de/xsd/net_file.xsd">

    <location netOffset="-583381.10,-4506319.56" convBoundary="0.00,0.00,2183.36,5933.18" origBoundary="-74.012793,40.703455,-73.986330,40.756786" projParameter="+proj=utm +zone=18 +ellps=WGS84 +datum=WGS84 +units=m +no_defs"/>

    <type id="highway.bridleway" priority="1" numLanes="1" speed="2.78" allow="pedestrian" oneway="1" width="2.00"/>
    <type id="highway.bus_guideway" priority="1" numLanes="1" speed="27.78" allow="bus" oneway="1"/>
    <type id="highway.cycleway" priority="1" numLanes="1" speed="8.33" allow="bicycle" oneway="0" width="1.00"/>
    <type id="highway.footway" priority="1" numLanes="1" speed="2.78" allow="pedestrian" oneway="1" width="2.00"/>
    <type id="highway.ford" priority="1" numLanes="1" speed="2.78" allow="army" oneway="0"/>
    <type id="highway.living_street" priority="2" numLanes="1" speed="2.78" disallow="tram rail_urban rail rail_electric ship" oneway="0"/>
    <type id="highway.motorway" priority="14" numLanes="2" speed="39.44" allow="private emergency authority army vip passenger hov taxi bus coach delivery truck trailer motorcycle evehicle custom1 custom2" oneway="1"/>
    <type id="highway.motorway_link" priority="9" numLanes="1" speed="22.22" allow="private emergency authority army vip passenger hov taxi bus coach delivery truck trailer motorcycle evehicle custom1 custom2" oneway="1"/>
    <type id="highway.path" priority="1" numLanes="1" speed="2.78" allow="bicycle pedestrian" oneway="1" width="2.00"/>
    <type id="highway.pedestrian" priority="1" numLanes="1" speed="2.78" allow="pedestrian" oneway="1" width="2.00"/>
    <type id="highway.primary" priority="12" numLanes="2" speed="27.78" disallow="tram rail_urban rail rail_electric ship" oneway="0"/>
    <type id="highway.primary_link" priority="7" numLanes="1" speed="22.22" disallow="tram rail_urban rail rail_electric ship" oneway="0"/>
    <type id="highway.raceway" priority="15" numLanes="2" speed="83.33" allow="vip" oneway="0"/>
    <type id="highway.residential" priority="3" numLanes="1" speed="13.89" disallow="tram rail_urban rail rail_electric ship" oneway="0"/>
    <type id="highway.secondary" priority="11" numLanes="2" speed="27.78" disallow="tram rail_urban rail rail_electric ship" oneway="0"/>
    <type id="highway.secondary_link" priority="6" numLanes="1" speed="22.22" disallow="tram rail_urban rail rail_electric ship" oneway="0"/>
    <type id="highway.service" priority="1" numLanes="1" speed="5.56" allow="delivery bicycle pedestrian" oneway="0"/>
    <type id="highway.stairs" priority="1" numLanes="1" speed="1.39" allow="pedestrian" oneway="1" width="2.00"/>
    <type id="highway.step" priority="1" numLanes="1" speed="1.39" allow="pedestrian" oneway="1" width="2.00"/>
    <type id="highway.steps" priority="1" numLanes="1" speed="1.39" allow="pedestrian" oneway="1" width="2.00"/>
    <type id="highway.tertiary" priority="10" numLanes="1" speed="22.22" disallow="tram rail_urban rail rail_electric ship" oneway="0"/>
    <type id="highway.tertiary_link" priority="5" numLanes="1" speed="22.22" disallow="tram rail_urban rail rail_electric ship" oneway="0"/>
    <type id="highway.track" priority="1" numLanes="1" speed="5.56" disallow="tram rail_urban rail rail_electric ship" oneway="0"/>
    <type id="highway.trunk" priority="13" numLanes="2" speed="27.78" disallow="tram rail_urban rail rail_electric bicycle pedestrian ship" oneway="0"/>
    <type id="highway.trunk_link" priority="8" numLanes="1" speed="22.22" disallow="tram rail_urban rail rail_electric bicycle pedestrian ship" oneway="0"/>
    <type id="highway.unclassified" priority="4" numLanes="1" speed="13.89" disallow="tram rail_urban rail rail_electric ship" oneway="0"/>
    <type id="highway.unsurfaced" priority="1" numLanes="1" speed="8.33" disallow="tram rail_urban rail rail_electric ship" oneway="0"/>
    <type id="railway.light_rail" priority="19" numLanes="1" speed="27.78" allow="rail_urban" oneway="1"/>
    <type id="railway.preserved" priority="16" numLanes="1" speed="27.78" allow="rail" oneway="1"/>
    <type id="railway.rail" priority="20" numLanes="1" speed="83.33" allow="rail rail_electric" oneway="1"/>
    <type id="railway.subway" priority="18" numLanes="1" speed="27.78" allow="rail_urban" oneway="1"/>
    <type id="railway.tram" priority="17" numLanes="1" speed="13.89" allow="tram" oneway="1"/>

    <edge id=":1692394900_0" function="internal">
        <lane id=":1692394900_0_0" index="0" allow="rail_urban" speed="27.78" length="25.80" shape="391.60,1238.64 404.70,1260.87"/>
    </edge>
    <edge id=":42429829_0" function="internal">
        <lane id=":42429829_0_0" index="0" disallow="tram rail_urban rail rail_electric ship" speed="11.18" length="11.20" shape="564.80,1417.30 555.13,1422.96"/>
    </edge>
    <edge id=":42429829_1" function="internal">
        <lane id=":42429829_1_0" index="0" disallow="tram rail_urban rail rail_electric ship" speed="6.49" length="9.03" shape="557.10,1415.30 558.06,1417.59 558.05,1419.63 557.07,1421.42 555.13,1422.96"/>
    </edge>
    <edge id=":42429830_0" function="internal">
        <lane id=":42429830_0_0" index="0" disallow="tram rail_urban rail rail_electric ship" speed="6.50" length="9.03" shape="522.17,1442.25 520.23,1443.79 519.25,1445.58 519.23,1447.62 520.17,1449.91"/>
    </edge>
    <edge id=":42429830_1" function="internal">
        <lane id=":42429830_1_0" index="0" disallow="tram rail_urban rail rail_electric ship" speed="11.18" length="14.40" shape="522.17,1442.25 509.74,1449.52"/>
    </edge>
    <edge id=":42429830_2" function="internal">
        <lane id=":42429830_2_0" index="0" disallow="tram rail_urban rail rail_electric ship" speed="11.18" length="11.21" shape="514.51,1440.23 520.17,1449.91"/>
        <lane id=":42429830_2_1" index="1" disallow="tram rail_urban rail rail_electric ship" speed="11.18" length="11.21" shape="511.74,1441.85 517.41,1451.53"/>
    </edge>
    <edge id=":42429830_4" function="internal">
        <lane id=":42429830_4_0" index="0" disallow="tram rail_urban rail rail_electric ship" speed="6.51" length="9.04" shape="511.74,1441.85 512.68,1444.14 512.65,1446.19 511.67,1447.98 509.74,1449.52"/>
    </edge>
    <edge id=":42429832_0" function="internal">
        <lane id=":42429832_0_0" index="0" disallow="tram rail_urban rail rail_electric ship" speed="6.49" length="9.03" shape="408.95,1514.98 407.43,1513.03 405.64,1512.04 403.61,1512.01 401.31,1512.95"/>
    </edge>
    <edge id=":42429832_1" function="internal">
        <lane id=":42429832_1_0" index="0" disallow="tram rail_urban rail rail_electric ship" speed="11.18" length="11.23" shape="408.95,1514.98 403.33,1505.27"/>
        <lane id=":42429832_1_1" index="1" disallow="tram rail_urban rail rail_electric ship" speed="11.18" length="11.23" shape="411.73,1513.38 406.10,1503.66"/>
    </edge>
    <edge id=":42429832_3" function="internal">
        <lane id=":42429832_3_0" index="0" disallow="tram rail_urban rail rail_electric ship" speed="11.18" length="14.41" shape="413.75,1505.67 401.31,1512.95"/>
    </edge>
    <edge id=":42429832_4" function="internal">
        <lane id=":42429832_4_0" index="0" disallow="tram rail_urban rail rail_electric ship" speed="6.50" length="9.03" shape="413.75,1505.67 411.46,1506.60 409.42,1506.58 407.63,1505.60 406.10,1503.66"/>
    </edge>
    <edge id=":42429833_0" function="internal">
        <lane id=":42429833_0_0" index="0" disallow="tram rail_urban rail rail_electric ship" speed="7.20" length="7.77" shape="324.71,1557.76 322.84,1559.10 321.57,1560.58 320.89,1562.20 320.81,1563.95"/>
    </edge>
    <edge id=":42429833_1" function="internal">
        <lane id=":42429833_1_0" index="0" disallow="tram rail_urban rail rail_electric ship" speed="11.18" length="8.70" shape="319.72,1555.31 320.81,1563.95"/>
        <lane id=":42429833_1_1" index="1" disallow="tram rail_urban rail rail_electric ship" speed="11.18" length="8.70" shape="316.54,1555.72 317.63,1564.34"/>
    </edge>
    <edge id=":42430521_0" function="internal">
        <lane id=":42430521_0_0" index="0" disallow="tram rail_urban rail rail_electric ship" speed="11.18" length="11.25" shape="225.01,1538.68 228.04,1537.96 230.20,1536.85 232.24,1535.40 234.91,1533.63"/>
    </edge>
    <edge id=":42430521_1" function="internal">
        <lane id=":42430521_1_0" index="0" disallow="tram rail_urban rail rail_electric ship" speed="11.18" length="11.23" shape="225.01,1538.68 236.14,1537.15"/>
    </edge>
    <edge id=":42430526_0" function="internal">
        <lane id=":42430526_0_0" index="0" disallow="tram rail_urban rail rail_electric ship" speed="11.18" length="6.20" shape="262.78,1533.48 268.93,1532.64"/>
    </edge>
    <edge id=":42430526_1" function="internal">
        <lane id=":42430526_1_0" index="0" allow="delivery bicycle pedestrian" speed="5.07" length="5.02" shape="262.78,1533.48 264.15,1533.49 265.19,1533.94 265.91,1534.83 266.30,1536.15"/>
    </edge>
    <edge id=":42430529_0" function="internal">
        <lane id=":42430529_0_0" index="0" disallow="tram rail_urban rail rail_electric ship" speed="11.18" length="11.10" shape="315.43,1520.79 316.67,1531.77"/>
        <lane id=":42430529_0_1" index="1" disallow="tram rail_urban rail rail_electric ship" speed="11.18" length="11.10" shape="312.24,1521.10 313.50,1532.18"/>
    </edge>
    <edge id=":42430529_2" function="internal">
        <lane id=":42430529_2_0" index="0" disallow="tram rail_urban rail rail_electric ship" speed="6.49" length="9.03" shape="307.22,1527.38 309.70,1527.39 311.57,1528.19 312.84,1529.79 313.50,1532.18"/>
    </edge>
    <edge id=":42430550_0" function="internal">
        <lane id=":42430550_0_0" index="0" disallow="tram rail_urban rail rail_electric ship" speed="6.50" length="9.03" shape="480.20,1381.41 481.75,1383.35 483.54,1384.32 485.58,1384.33 487.87,1383.38"/>
    </edge>
    <edge id=":42430550_1" function="internal">
        <lane id=":42430550_1_0" index="0" disallow="tram rail_urban rail rail_electric ship" speed="11.18" length="11.23" shape="480.20,1381.41 485.89,1391.11"/>
        <lane id=":42430550_1_1" index="1" disallow="tram rail_urban rail rail_electric ship" speed="11.18" length="11.23" shape="477.44,1383.04 483.12,1392.72"/>
    </edge>
    <edge id=":42430550_3" function="internal">
        <lane id=":42430550_3_0" index="0" disallow="tram rail_urban rail rail_electric ship" speed="11.18" length="14.42" shape="475.47,1390.74 487.87,1383.38"/>
    </edge>
    <edge id=":42430550_4" function="internal">
        <lane id=":42430550_4_0" index="0" disallow="tram rail_urban rail rail_electric ship" speed="6.49" length="9.03" shape="475.47,1390.74 477.76,1389.79 479.80,1389.80 481.59,1390.78 483.12,1392.72"/>
    </edge>
    <edge id=":42430557_0" function="internal">
        <lane id=":42430557_0_0" index="0" disallow="tram rail_urban rail rail_electric ship" speed="11.18" length="11.17" shape="375.11,1456.83 369.51,1447.16"/>
        <lane id=":42430557_0_1" index="1" disallow="tram rail_urban rail rail_electric ship" speed="11.18" length="11.17" shape="377.87,1455.22 372.28,1445.56"/>
    </edge>
    <edge id=":42430557_2" function="internal">
        <lane id=":42430557_2_0" index="0" disallow="tram rail_urban rail rail_electric ship" speed="6.52" length="9.02" shape="377.87,1455.22 376.94,1452.93 376.96,1450.88 377.93,1449.09 379.85,1447.54"/>
    </edge>
    <edge id=":42430557_3" function="internal">
        <lane id=":42430557_3_0" index="0" disallow="tram rail_urban rail rail_electric ship" speed="6.54" length="9.04" shape="367.53,1454.86 369.44,1453.31 370.41,1451.52 370.43,1449.46 369.51,1447.16"/>
    </edge>
    <edge id=":42430557_4" function="internal">
        <lane id=":42430557_4_0" index="0" disallow="tram rail_urban rail rail_electric ship" speed="11.18" length="14.33" shape="367.53,1454.86 379.85,1447.54"/>
    </edge>
    <edge id=":42430571_0" function="internal">
        <lane id=":42430571_0_0" index="0" disallow="tram rail_urban rail rail_electric ship" speed="5.75" length="9.17" shape="311.67,1481.18 312.27,1483.83 313.49,1485.24 315.36,1485.42 317.86,1484.36"/>
    </edge>
    <edge id=":42430571_1" function="internal">
        <lane id=":42430571_1_0" index="0" disallow="tram rail_urban rail rail_electric ship" speed="11.18" length="14.60" shape="311.67,1481.18 312.99,1495.70"/>
        <lane id=":42430571_1_1" index="1" disallow="tram rail_urban rail rail_electric ship" speed="11.18" length="14.60" shape="308.48,1481.45 309.80,1496.01"/>
    </edge>
    <edge id=":42430571_3" function="internal">
        <lane id=":42430571_3_0" index="0" disallow="tram rail_urban rail rail_electric ship" speed="11.18" length="16.62" shape="303.57,1492.85 317.86,1484.36"/>
    </edge>
    <edge id=":42430571_4" function="internal">
        <lane id=":42430571_4_0" index="0" disallow="tram rail_urban rail rail_electric ship" speed="5.76" length="9.16" shape="303.57,1492.85 306.06,1491.80 307.93,1491.97 309.18,1493.38 309.80,1496.01"/>
    </edge>
    <edge id=":42431611_0" function="internal">
        <lane id=":42431611_0_0" index="0" disallow="tram rail_urban rail rail_electric ship" speed="6.53" length="9.07" shape="417.73,1264.30 415.79,1265.85 414.81,1267.66 414.80,1269.71 415.74,1272.01"/>
    </edge>
    <edge id=":42431611_1" function="internal">
        <lane id=":42431611_1_0" index="0" disallow="tram rail_urban rail rail_electric ship" speed="11.18" length="14.43" shape="417.73,1264.30 405.32,1271.65"/>
    </edge>
    <edge id=":42431611_2" function="internal">
        <lane id=":42431611_2_0" index="0" disallow="tram rail_urban rail rail_electric ship" speed="3.65" length="2.34" shape="417.73,1264.30 416.29,1264.22 415.54,1263.73"/>
    </edge>
    <edge id=":42431611_10" function="internal">
        <lane id=":42431611_10_0" index="0" disallow="tram rail_urban rail rail_electric ship" speed="3.65" length="2.34" shape="415.54,1263.73 415.47,1262.84 416.10,1261.54"/>
    </edge>
    <edge id=":42431611_3" function="internal">
        <lane id=":42431611_3_0" index="0" disallow="tram rail_urban rail rail_electric ship" speed="6.50" length="9.03" shape="408.44,1259.57 409.98,1261.50 411.77,1262.48 413.81,1262.49 416.10,1261.54"/>
    </edge>
    <edge id=":42431611_4" function="internal">
        <lane id=":42431611_4_0" index="0" disallow="tram rail_urban rail rail_electric ship" speed="11.18" length="14.43" shape="408.44,1259.57 415.74,1272.01"/>
        <lane id=":42431611_4_1" index="1" disallow="tram rail_urban rail rail_electric ship" speed="11.18" length="14.43" shape="405.68,1261.19 412.98,1273.63"/>
    </edge>
    <edge id=":42431611_6" function="internal">
        <lane id=":42431611_6_0" index="0" disallow="tram rail_urban rail rail_electric ship" speed="7.35" length="11.76" shape="405.68,1261.19 407.33,1264.69 407.82,1267.60 407.15,1269.92 405.32,1271.65"/>
    </edge>
    <edge id=":42431611_7" function="internal">
        <lane id=":42431611_7_0" index="0" disallow="tram rail_urban rail rail_electric ship" speed="11.18" length="14.43" shape="403.69,1268.90 416.10,1261.54"/>
    </edge>
    <edge id=":42431611_8" function="internal">
        <lane id=":42431611_8_0" index="0" disallow="tram rail_urban rail rail_electric ship" speed="7.32" length="4.05" shape="403.69,1268.90 406.08,1268.12 407.57,1268.45"/>
    </edge>
    <edge id=":42431611_9" function="internal">
        <lane id=":42431611_9_0" index="0" disallow="tram rail_urban rail rail_electric ship" speed="3.65" length="2.34" shape="403.69,1268.90 405.13,1268.97 405.88,1269.46"/>
    </edge>
    <edge id=":42431611_11" function="internal">
        <lane id=":42431611_11_0" index="0" disallow="tram rail_urban rail rail_electric ship" speed="7.32" length="7.69" shape="407.57,1268.45 408.43,1268.65 410.73,1270.48 412.98,1273.63"/>
    </edge>
    <edge id=":42431611_12" function="internal">
        <lane id=":42431611_12_0" index="0" disallow="tram rail_urban rail rail_electric ship" speed="3.65" length="2.34" shape="405.88,1269.46 405.94,1270.35 405.32,1271.65"/>
    </edge>
    <edge id=":42431614_0" function="internal">
        <lane id=":42431614_0_0" index="0" disallow="tram rail_urban rail rail_electric ship" speed="7.28" length="11.49" shape="305.75,1338.65 304.39,1337.58 302.19,1337.54 299.15,1338.53 295.28,1340.54"/>
    </edge>
    <edge id=":42431614_1" function="internal">
        <lane id=":42431614_1_0" index="0" disallow="tram rail_urban rail rail_electric ship" speed="11.18" length="18.87" shape="305.75,1338.65 296.09,1322.42"/>
        <lane id=":42431614_1_1" index="1" disallow="tram rail_urban rail rail_electric ship" speed="11.18" length="18.87" shape="308.49,1337.00 298.84,1320.80"/>
    </edge>
    <edge id=":42431614_3" function="internal">
        <lane id=":42431614_3_0" index="0" disallow="tram rail_urban rail rail_electric ship" speed="7.62" length="12.83" shape="308.49,1337.00 306.53,1333.05 305.82,1329.82 306.36,1327.30 308.16,1325.51"/>
    </edge>
    <edge id=":42431614_4" function="internal">
        <lane id=":42431614_4_0" index="0" disallow="tram rail_urban rail rail_electric ship" speed="11.18" length="18.73" shape="309.79,1328.26 293.66,1337.78"/>
    </edge>
    <edge id=":42431614_5" function="internal">
        <lane id=":42431614_5_0" index="0" disallow="tram rail_urban rail rail_electric ship" speed="8.10" length="14.58" shape="309.79,1328.26 307.29,1328.87 304.63,1327.83 301.82,1325.14 298.84,1320.80"/>
    </edge>
    <edge id=":42431614_6" function="internal">
        <lane id=":42431614_6_0" index="0" disallow="tram rail_urban rail rail_electric ship" speed="3.65" length="4.67" shape="309.79,1328.26 308.35,1328.19 307.60,1327.70 307.53,1326.81 308.16,1325.51"/>
    </edge>
    <edge id=":42431614_7" function="internal">
        <lane id=":42431614_7_0" index="0" disallow="tram rail_urban rail rail_electric ship" speed="7.59" length="12.68" shape="290.41,1332.27 293.96,1329.77 296.09,1327.30 296.80,1324.85 296.09,1322.42"/>
    </edge>
    <edge id=":42431614_8" function="internal">
        <lane id=":42431614_8_0" index="0" disallow="tram rail_urban rail rail_electric ship" speed="11.18" length="19.05" shape="290.41,1332.27 296.03,1329.54 300.74,1328.04 304.72,1326.96 308.16,1325.51"/>
    </edge>
    <edge id=":42431614_9" function="internal">
        <lane id=":42431614_9_0" index="0" disallow="tram rail_urban rail rail_electric ship" speed="3.65" length="2.34" shape="292.03,1335.02 293.47,1335.11 294.22,1335.59"/>
    </edge>
    <edge id=":42431614_10" function="internal">
        <lane id=":42431614_10_0" index="0" disallow="tram rail_urban rail rail_electric ship" speed="3.65" length="2.34" shape="294.22,1335.59 294.28,1336.48 293.66,1337.78"/>
    </edge>
    <edge id=":42431617_0" function="internal">
        <lane id=":42431617_0_0" index="0" disallow="tram rail_urban rail rail_electric ship" speed="3.65" length="4.67" shape="158.86,1417.10 157.42,1417.02 156.67,1416.53 156.60,1415.64 157.23,1414.34"/>
    </edge>
    <edge id=":42436322_0" function="internal">
        <lane id=":42436322_0_0" index="0" disallow="tram rail_urban rail rail_electric ship" speed="7.40" length="7.92" shape="308.80,1403.87 307.30,1405.06 306.29,1406.59 305.77,1408.47 305.73,1410.69"/>
    </edge>
    <edge id=":42436322_1" function="internal">
        <lane id=":42436322_1_0" index="0" disallow="tram rail_urban rail rail_electric ship" speed="8.20" length="9.87" shape="308.80,1403.87 305.96,1405.75 303.97,1407.55 302.83,1409.29 302.54,1410.96"/>
    </edge>
    <edge id=":42436322_2" function="internal">
        <lane id=":42436322_2_0" index="0" disallow="tram rail_urban rail rail_electric ship" speed="19.48" length="12.00" shape="307.18,1401.11 304.14,1403.18 302.15,1404.98 300.32,1406.68 297.75,1408.47"/>
    </edge>
    <edge id=":42445356_0" function="internal">
        <lane id=":42445356_0_0" index="0" disallow="tram rail_urban rail rail_electric ship" speed="6.90" length="10.32" shape="450.10,1319.47 448.21,1321.09 447.38,1323.13 447.62,1325.59 448.91,1328.47"/>
    </edge>
    <edge id=":42445356_1" function="internal">
        <lane id=":42445356_1_0" index="0" disallow="tram rail_urban rail rail_electric ship" speed="19.48" length="14.52" shape="450.10,1319.47 447.34,1321.37 445.01,1323.37 442.31,1325.58 438.46,1328.12"/>
    </edge>
    <edge id=":42445356_2" function="internal">
        <lane id=":42445356_2_0" index="0" disallow="tram rail_urban rail rail_electric ship" speed="11.18" length="14.39" shape="441.61,1316.08 448.91,1328.47"/>
        <lane id=":42445356_2_1" index="1" disallow="tram rail_urban rail rail_electric ship" speed="11.18" length="14.39" shape="438.85,1317.70 446.15,1330.10"/>
    </edge>
    <edge id=":42445356_4" function="internal">
        <lane id=":42445356_4_0" index="0" disallow="tram rail_urban rail rail_electric ship" speed="6.50" length="9.03" shape="438.85,1317.70 439.79,1319.99 439.77,1322.03 438.79,1323.82 436.85,1325.36"/>
    </edge>
    <edge id=":42445357_0" function="internal">
        <lane id=":42445357_0_0" index="0" disallow="tram rail_urban rail rail_electric ship" speed="6.50" length="9.05" shape="338.33,1393.11 336.80,1391.16 335.02,1390.17 332.97,1390.15 330.67,1391.09"/>
    </edge>
    <edge id=":42445357_1" function="internal">
        <lane id=":42445357_1_0" index="0" disallow="tram rail_urban rail rail_electric ship" speed="11.18" length="14.46" shape="338.33,1393.11 331.01,1380.67"/>
        <lane id=":42445357_1_1" index="1" disallow="tram rail_urban rail rail_electric ship" speed="11.18" length="14.46" shape="341.10,1391.51 333.75,1379.03"/>
    </edge>
    <edge id=":42445357_3" function="internal">
        <lane id=":42445357_3_0" index="0" disallow="tram rail_urban rail rail_electric ship" speed="27.78" length="14.42" shape="343.12,1383.81 330.67,1391.09"/>
        <lane id=":42445357_3_1" index="1" disallow="tram rail_urban rail rail_electric ship" speed="27.78" length="14.42" shape="341.51,1381.05 329.05,1388.33"/>
    </edge>
    <edge id=":42445357_5" function="internal">
        <lane id=":42445357_5_0" index="0" disallow="tram rail_urban rail rail_electric ship" speed="6.56" length="9.11" shape="341.51,1381.05 339.21,1381.98 337.15,1381.96 335.33,1380.97 333.75,1379.03"/>
    </edge>
    <edge id=":42449597_0" function="internal">
        <lane id=":42449597_0_0" index="0" disallow="tram rail_urban rail rail_electric ship" speed="7.33" length="11.70" shape="367.31,1206.88 370.81,1205.24 373.71,1204.76 376.02,1205.43 377.72,1207.26"/>
    </edge>
    <edge id=":42449597_1" function="internal">
        <lane id=":42449597_1_0" index="0" disallow="tram rail_urban rail rail_electric ship" speed="6.51" length="9.01" shape="367.31,1206.88 369.60,1205.95 371.64,1205.97 373.43,1206.95 374.97,1208.88"/>
    </edge>
    <edge id=":42449600_0" function="internal">
        <lane id=":42449600_0_0" index="0" disallow="tram rail_urban rail rail_electric ship" speed="11.18" length="11.23" shape="266.42,1272.27 260.71,1262.59"/>
        <lane id=":42449600_0_1" index="1" disallow="tram rail_urban rail rail_electric ship" speed="11.18" length="11.23" shape="269.18,1270.64 263.47,1260.97"/>
    </edge>
    <edge id=":42449600_2" function="internal">
        <lane id=":42449600_2_0" index="0" disallow="tram rail_urban rail rail_electric ship" speed="6.49" length="9.03" shape="269.18,1270.64 268.23,1268.35 268.24,1266.31 269.22,1264.52 271.16,1262.98"/>
    </edge>
    <edge id=":42449600_3" function="internal">
        <lane id=":42449600_3_0" index="0" disallow="tram rail_urban rail rail_electric ship" speed="6.50" length="9.03" shape="258.72,1270.25 260.66,1268.71 261.64,1266.92 261.65,1264.88 260.71,1262.59"/>
    </edge>
    <edge id=":42449600_4" function="internal">
        <lane id=":42449600_4_0" index="0" disallow="tram rail_urban rail rail_electric ship" speed="11.18" length="14.41" shape="258.72,1270.25 271.16,1262.98"/>
    </edge>
    <edge id=":42452816_0" function="internal">
        <lane id=":42452816_0_0" index="0" disallow="tram rail_urban rail rail_electric ship" speed="6.51" length="9.02" shape="444.07,1575.97 442.54,1574.03 440.76,1573.05 438.72,1573.01 436.43,1573.93"/>
    </edge>
    <edge id=":42452816_1" function="internal">
        <lane id=":42452816_1_0" index="0" disallow="tram rail_urban rail rail_electric ship" speed="11.18" length="11.19" shape="444.07,1575.97 438.47,1566.28"/>
        <lane id=":42452816_1_1" index="1" disallow="tram rail_urban rail rail_electric ship" speed="11.18" length="11.19" shape="446.84,1574.37 441.25,1564.69"/>
    </edge>
    <edge id=":42452816_3" function="internal">
        <lane id=":42452816_3_0" index="0" disallow="tram rail_urban rail rail_electric ship" speed="6.51" length="9.02" shape="446.84,1574.37 445.92,1572.08 445.95,1570.04 446.93,1568.25 448.87,1566.72"/>
    </edge>
    <edge id=":4501889850_0" function="internal">
        <lane id=":4501889850_0_0" index="0" allow="delivery bicycle pedestrian" speed="3.65" length="4.67" shape="548.61,1389.24 550.05,1389.32 550.80,1389.80 550.87,1390.69 550.24,1391.99"/>
    </edge>
    <edge id=":4501889852_0" function="internal">
        <lane id=":4501889852_0_0" index="0" disallow="tram rail_urban rail rail_electric ship" speed="5.04" length="5.00" shape="547.71,1393.50 546.65,1394.36 546.11,1395.36 546.11,1396.49 546.64,1397.75"/>
    </edge>
    <edge id=":4501889852_1" function="internal">
        <lane id=":4501889852_1_0" index="0" allow="delivery bicycle pedestrian" speed="3.65" length="4.67" shape="547.71,1393.50 546.27,1393.43 545.52,1392.94 545.45,1392.05 546.08,1390.75"/>
    </edge>
    <edge id=":4501889852_2" function="internal">
        <lane id=":4501889852_2_0" index="0" allow="delivery bicycle pedestrian" speed="5.04" length="5.00" shape="541.82,1389.68 542.68,1390.74 543.68,1391.28 544.81,1391.28 546.08,1390.75"/>
    </edge>
    <edge id=":4501889852_3" function="internal">
        <lane id=":4501889852_3_0" index="0" disallow="tram rail_urban rail rail_electric ship" speed="11.18" length="9.40" shape="541.82,1389.68 546.64,1397.75"/>
    </edge>
    <edge id=":4754091366_0" function="internal">
        <lane id=":4754091366_0_0" index="0" disallow="tram rail_urban rail rail_electric ship" speed="11.18" length="11.19" shape="520.14,1364.21 529.76,1358.50"/>
    </edge>
    <edge id=":4754091366_1" function="internal">
        <lane id=":4754091366_1_0" index="0" disallow="tram rail_urban rail rail_electric ship" speed="6.51" length="9.03" shape="520.14,1364.21 522.42,1363.26 524.46,1363.27 526.26,1364.24 527.81,1366.16"/>
    </edge>
    <edge id=":4878831008_0" function="internal">
        <lane id=":4878831008_0_0" index="0" disallow="tram rail_urban rail rail_electric ship" speed="3.65" length="4.67" shape="740.99,1069.11 742.43,1069.18 743.18,1069.67 743.24,1070.56 742.62,1071.86"/>
    </edge>
    <edge id=":5106302861_0" function="internal">
        <lane id=":5106302861_0_0" index="0" allow="rail_urban" speed="27.78" length="3.00" shape="397.61,1496.27 396.09,1493.69"/>
    </edge>
    <edge id=":5106302862_0" function="internal">
        <lane id=":5106302862_0_0" index="0" allow="rail_urban" speed="27.78" length="33.73" shape="381.39,1461.21 398.43,1490.32"/>
    </edge>
    <edge id=":5106302862_1" function="internal">
        <lane id=":5106302862_1_0" index="0" allow="rail_urban" speed="27.78" length="33.73" shape="381.39,1461.21 384.36,1467.18 388.60,1476.45 392.74,1485.76 395.45,1491.86"/>
    </edge>
    <edge id=":5106302863_0" function="internal">
        <lane id=":5106302863_0_0" index="0" allow="rail_urban" speed="27.78" length="30.32" shape="356.00,1425.49 358.83,1430.94 363.29,1438.78 367.93,1446.51 371.29,1451.65"/>
    </edge>
    <edge id=":5106302863_1" function="internal">
        <lane id=":5106302863_1_0" index="0" allow="rail_urban" speed="27.78" length="30.25" shape="356.00,1425.49 368.23,1453.15"/>
    </edge>
    <edge id=":5106302863_2" function="internal">
        <lane id=":5106302863_2_0" index="0" allow="rail_urban" speed="27.78" length="30.75" shape="352.93,1426.98 371.29,1451.65"/>
    </edge>
    <edge id=":5106302863_3" function="internal">
        <lane id=":5106302863_3_0" index="0" allow="rail_urban" speed="27.78" length="12.69" shape="352.93,1426.98 356.30,1432.12 359.67,1437.73"/>
    </edge>
    <edge id=":5106302863_4" function="internal">