<?xml version="1.0" encoding="UTF-8"?>

<!-- generated on Wed Sep 11 16:43:51 2019 by Eclipse SUMO duarouter Version 1.2.0
<configuration xmlns:xsi="http://www.w3.org/2001/XMLSchema-instance" xsi:noNamespaceSchemaLocation="http://sumo.dlr.de/xsd/duarouterConfiguration.xsd">

    <input>
        <net-file value="/home/werer/sumo/tools/2019-09-11-16-43-43/osm.net.xml"/>
        <route-files value="/home/werer/sumo/tools/2019-09-11-16-43-43/osm.passenger.trips.xml"/>
    </input>

    <output>
        <output-file value="/home/werer/sumo/tools/2019-09-11-16-43-43/osm.passenger.trips.xml.tmp"/>
        <write-trips value="true"/>
    </output>

    <time>
        <begin value="0"/>
        <end value="3600.0"/>
    </time>

    <report>
        <no-warnings value="true"/>
        <ignore-errors value="true"/>
        <no-step-log value="true"/>
    </report>

</configuration>
-->

<routes xmlns:xsi="http://www.w3.org/2001/XMLSchema-instance" xsi:noNamespaceSchemaLocation="http://sumo.dlr.de/xsd/routes_file.xsd">
    <vType id="veh_passenger" vClass="passenger"/>
    <trip id="veh0" type="veh_passenger" depart="0.00" departLane="best" departSpeed="max" from="46171883#0" to="-275016228#1"/>
    <trip id="veh1" type="veh_passenger" depart="0.78" departLane="best" departSpeed="max" from="275016228#0" to="124814435#3"/>
    <trip id="veh2" type="veh_passenger" depart="1.56" departLane="best" departSpeed="max" from="5671314#0" to="124814435#3"/>
    <trip id="veh3" type="veh_passenger" depart="2.34" departLane="best" departSpeed="max" from="413050335#0" to="-275016228#1"/>
    <trip id="veh4" type="veh_passenger" depart="3.13" departLane="best" departSpeed="max" from="-127690685" to="413054286#3"/>
    <trip id="veh5" type="veh_passenger" depart="3.91" departLane="best" departSpeed="max" from="5669935#0" to="-275016228#1"/>
    <trip id="veh6" type="veh_passenger" depart="4.69" departLane="best" departSpeed="max" from="5669935#0" to="46171887"/>
    <trip id="veh7" type="veh_passenger" depart="5.47" departLane="best" departSpeed="max" from="413050335#0" to="124814435#3"/>
    <trip id="veh8" type="veh_passenger" depart="6.25" departLane="best" departSpeed="max" from="5671314#0" to="127690685"/>
    <trip id="veh9" type="veh_passenger" depart="7.03" departLane="best" departSpeed="max" from="5669935#0" to="413054286#3"/>
    <trip id="veh10" type="veh_passenger" depart="7.81" departLane="best" departSpeed="max" from="5669935#0" to="46171887"/>
    <trip id="veh11" type="veh_passenger" depart="8.59" departLane="best" departSpeed="max" from="413050335#0" to="413054286#3"/>
    <trip id="veh12" type="veh_passenger" depart="9.38" departLane="best" departSpeed="max" from="5669935#0" to="413054286#3"/>
    <trip id="veh13" type="veh_passenger" depart="10.16" departLane="best" departSpeed="max" from="5669935#0" to="413054286#3"/>
    <trip id="veh14" type="veh_passenger" depart="10.94" departLane="best" departSpeed="max" from="5669866#0" to="-275016228#1"/>
    <trip id="veh15" type="veh_passenger" depart="11.72" departLane="best" departSpeed="max" from="275016228#0" to="127690685"/>
    <trip id="veh16" type="veh_passenger" depart="12.50" departLane="best" departSpeed="max" from="46171883#0" to="127690685"/>
    <trip id="veh17" type="veh_passenger" depart="13.28" departLane="best" departSpeed="max" from="413050335#0" to="124814435#3"/>
    <trip id="veh19" type="veh_passenger" depart="14.84" departLane="best" departSpeed="max" from="5671314#0" to="413054286#3"/>
    <trip id="veh20" type="veh_passenger" depart="15.63" departLane="best" departSpeed="max" from="5669935#0" to="46171887"/>
    <trip id="veh21" type="veh_passenger" depart="16.41" departLane="best" departSpeed="max" from="275016228#0" to="127690685"/>
    <trip id="veh24" type="veh_passenger" depart="18.75" departLane="best" departSpeed="max" from="275016228#0" to="127690685"/>
    <trip id="veh25" type="veh_passenger" depart="19.53" departLane="best" departSpeed="max" from="46171883#0" to="127690685"/>
    <trip id="veh26" type="veh_passenger" depart="20.31" departLane="best" departSpeed="max" from="46171883#0" to="5669938#4"/>
    <trip id="veh27" type="veh_passenger" depart="21.09" departLane="best" departSpeed="max" from="413050335#0" to="124814435#3"/>
    <trip id="veh28" type="veh_passenger" depart="21.88" departLane="best" departSpeed="max" from="5671314#0" to="413045202"/>
    <trip id="veh29" type="veh_passenger" depart="22.66" departLane="best" departSpeed="max" from="-127690685" to="-275016228#1"/>
    <trip id="veh30" type="veh_passenger" depart="23.44" departLane="best" departSpeed="max" from="-127690685" to="413054286#3"/>
    <trip id="veh31" type="veh_passenger" depart="24.22" departLane="best" departSpeed="max" from="5671314#0" to="413045202"/>
    <trip id="veh32" type="veh_passenger" depart="25.00" departLane="best" departSpeed="max" from="5669866#0" to="413045202"/>
    <trip id="veh33" type="veh_passenger" depart="25.78" departLane="best" departSpeed="max" from="275016228#0" to="413054286#3"/>
    <trip id="veh34" type="veh_passenger" depart="26.56" departLane="best" departSpeed="max" from="275016228#0" to="413054286#3"/>
    <trip id="veh36" type="veh_passenger" depart="28.13" departLane="best" departSpeed="max" from="5669935#0" to="46171887"/>
    <trip id="veh38" type="veh_passenger" depart="29.69" departLane="best" departSpeed="max" from="5669866#0" to="124814435#3"/>
    <trip id="veh39" type="veh_passenger" depart="30.47" departLane="best" departSpeed="max" from="413050335#0" to="124814435#3"/>
    <trip id="veh40" type="veh_passenger" depart="31.25" departLane="best" departSpeed="max" from="46171883#0" to="46171887"/>
    <trip id="veh41" type="veh_passenger" depart="32.03" departLane="best" departSpeed="max" from="5671314#0" to="413054286#3"/>
    <trip id="veh42" type="veh_passenger" depart="32.81" departLane="best" departSpeed="max" from="413050335#0" to="413054286#3"/>
    <trip id="veh43" type="veh_passenger" depart="33.59" departLane="best" departSpeed="max" from="275016228#0" to="124814435#3"/>
    <trip id="veh44" type="veh_passenger" depart="34.38" departLane="best" departSpeed="max" from="-127690685" to="413054286#3"/>
    <trip id="veh45" type="veh_passenger" depart="35.16" departLane="best" departSpeed="max" from="5669935#0" to="-275016228#1"/>
    <trip id="veh46" type="veh_passenger" depart="35.94" departLane="best" departSpeed="max" from="275016228#0" to="413054286#3"/>
    <trip id="veh47" type="veh_passenger" depart="36.72" departLane="best" departSpeed="max" from="5671314#0" to="413054286#3"/>
    <trip id="veh48" type="veh_passenger" depart="37.50" departLane="best" departSpeed="max" from="46171883#0" to="46171887"/>
    <trip id="veh49" type="veh_passenger" depart="38.28" departLane="best" departSpeed="max" from="5671314#0" to="124814435#3"/>
    <trip id="veh51" type="veh_passenger" depart="39.84" departLane="best" departSpeed="max" from="413050335#0" to="5669938#4"/>
    <trip id="veh52" type="veh_passenger" depart="40.63" departLane="best" departSpeed="max" from="46171883#0" to="-275016228#1"/>
    <trip id="veh53" type="veh_passenger" depart="41.41" departLane="best" from="68668562#1" to="46171887"/>
    <trip id="veh55" type="veh_passenger" depart="42.97" departLane="best" departSpeed="max" from="413050335#0" to="-275016228#1"/>
    <trip id="veh57" type="veh_passenger" depart="44.53" departLane="best" departSpeed="max" from="275016228#0" to="46171887"/>
    <trip id="veh59" type="veh_passenger" depart="46.10" departLane="best" departSpeed="max" from="46171883#0" to="46171887"/>
    <trip id="veh60" type="veh_passenger" depart="46.88" departLane="best" departSpeed="max" from="5671314#0" to="413054286#3"/>
    <trip id="veh61" type="veh_passenger" depart="47.66" departLane="best" departSpeed="max" from="46171883#0" to="46171887"/>
    <trip id="veh62" type="veh_passenger" depart="48.44" departLane="best" departSpeed="max" from="-127690685" to="413054286#3"/>
    <trip id="veh63" type="veh_passenger" depart="49.22" departLane="best" departSpeed="max" from="46171883#0" to="5669938#4"/>
    <trip id="veh65" type="veh_passenger" depart="50.78" departLane="best" departSpeed="max" from="275016228#0" to="124814435#3"/>
    <trip id="veh66" type="veh_passenger" depart="51.56" departLane="best" departSpeed="max" from="5671314#0" to="127690685"/>
    <trip id="veh67" type="veh_passenger" depart="52.35" departLane="best" departSpeed="max" from="413050335#0" to="413054286#3"/>
    <trip id="veh69" type="veh_passenger" depart="53.91" departLane="best" departSpeed="max" from="5669866#0" to="127690685"/>
    <trip id="veh70" type="veh_passenger" depart="54.69" departLane="best" departSpeed="max" from="275016228#0" to="46171887"/>
    <trip id="veh73" type="veh_passenger" depart="57.03" departLane="best" departSpeed="max" from="5669935#0" to="5669938#4"/>
    <trip id="veh74" type="veh_passenger" depart="57.81" departLane="best" departSpeed="max" from="413050335#0" to="124814435#3"/>
    <trip id="veh75" type="veh_passenger" depart="58.60" departLane="best" departSpeed="max" from="5669935#0" to="46171887"/>
    <trip id="veh76" type="veh_passenger" depart="59.38" departLane="best" departSpeed="max" from="46171883#0" to="-275016228#1"/>
    <trip id="veh77" type="veh_passenger" depart="60.16" departLane="best" departSpeed="max" from="-127690685" to="413054286#3"/>
    <trip id="veh78" type="veh_passenger" depart="60.94" departLane="best" departSpeed="max" from="275016228#0" to="413054286#3"/>
    <trip id="veh79" type="veh_passenger" depart="61.72" departLane="best" departSpeed="max" from="5669866#0" to="124814435#3"/>
    <trip id="veh80" type="veh_passenger" depart="62.50" departLane="best" departSpeed="max" from="46171883#0" to="127690685"/>
    <trip id="veh81" type="veh_passenger" depart="63.28" departLane="best" departSpeed="max" from="46171883#0" to="5669938#4"/>
    <trip id="veh82" type="veh_passenger" depart="64.06" departLane="best" departSpeed="max" from="46171883#0" to="127690685"/>
    <trip id="veh83" type="veh_passenger" depart="64.85" departLane="best" departSpeed="max" from="413050335#0" to="-275016228#1"/>
    <trip id="veh84" type="veh_passenger" depart="65.63" departLane="best" departSpeed="max" from="-127690685" to="5669938#4"/>
    <trip id="veh85" type="veh_passenger" depart="66.41" departLane="best" departSpeed="max" from="5671314#0" to="413054286#3"/>
    <trip id="veh86" type="veh_passenger" depart="67.19" departLane="best" departSpeed="max" from="5669935#0" to="413054286#3"/>
    <trip id="veh87" type="veh_passenger" depart="67.97" departLane="best" departSpeed="max" from="5669935#0" to="5669938#4"/>
    <trip id="veh88" type="veh_passenger" depart="68.75" departLane="best" departSpeed="max" from="5671314#0" to="124814435#3"/>
    <trip id="veh89" type="veh_passenger" depart="69.53" departLane="best" departSpeed="max" from="275016228#0" to="124814435#3"/>
    <trip id="veh90" type="veh_passenger" depart="70.31" departLane="best" departSpeed="max" from="5669935#0" to="5669938#4"/>
    <trip id="veh91" type="veh_passenger" depart="71.10" departLane="best" departSpeed="max" from="413050335#0" to="413054286#3"/>
    <trip id="veh94" type="veh_passenger" depart="73.44" departLane="best" departSpeed="max" from="5669935#0" to="5669938#4"/>
    <trip id="veh96" type="veh_passenger" depart="75.00" departLane="best" departSpeed="max" from="5669935#0" to="5669938#4"/>
    <trip id="veh97" type="veh_passenger" depart="75.78" departLane="best" departSpeed="max" from="5669935#0" to="5669938#4"/>
    <trip id="veh98" type="veh_passenger" depart="76.56" departLane="best" departSpeed="max" from="275016228#0" to="46171887"/>
    <trip id="veh99" type="veh_passenger" depart="77.35" departLane="best" departSpeed="max" from="46171883#0" to="127690685"/>
    <trip id="veh100" type="veh_passenger" depart="78.13" departLane="best" departSpeed="max" from="5671314#0" to="127690685"/>
    <trip id="veh101" type="veh_passenger" depart="78.91" departLane="best" departSpeed="max" from="5671314#0" to="413045202"/>
    <trip id="veh102" type="veh_passenger" depart="79.69" departLane="best" departSpeed="max" from="5671314#0" to="124814435#3"/>
    <trip id="veh103" type="veh_passenger" depart="80.47" departLane="best" departSpeed="max" from="5671314#0" to="124814435#3"/>
    <trip id="veh104" type="veh_passenger" depart="81.25" departLane="best" departSpeed="max" from="5671314#0" to="127690685"/>
    <trip id="veh105" type="veh_passenger" depart="82.03" departLane="best" departSpeed="max" from="5669866#0" to="127690685"/>
    <trip id="veh106" type="veh_passenger" depart="82.82" departLane="best" departSpeed="max" from="46171883#0" to="413045202"/>
    <trip id="veh107" type="veh_passenger" depart="83.60" departLane="best" departSpeed="max" from="413050335#0" to="413054286#3"/>
    <trip id="veh108" type="veh_passenger" depart="84.38" departLane="best" departSpeed="max" from="275016228#0" to="46171887"/>
    <trip id="veh110" type="veh_passenger" depart="85.94" departLane="best" departSpeed="max" from="46171883#0" to="46171887"/>
    <trip id="veh111" type="veh_passenger" depart="86.72" departLane="best" departSpeed="max" from="413050335#0" to="-275016228#1"/>
    <trip id="veh112" type="veh_passenger" depart="87.50" departLane="best" departSpeed="max" from="46171883#0" to="127690685"/>
    <trip id="veh113" type="veh_passenger" depart="88.28" departLane="best" departSpeed="max" from="5669866#0" to="127690685"/>
    <trip id="veh115" type="veh_passenger" depart="89.85" departLane="best" departSpeed="max" from="5671314#0" to="413054286#3"/>
    <trip id="veh116" type="veh_passenger" depart="90.63" departLane="best" departSpeed="max" from="5671314#0" to="413054286#3"/>
    <trip id="veh117" type="veh_passenger" depart="91.41" departLane="best" departSpeed="max" from="275016228#0" to="413054286#3"/>
    <trip id="veh118" type="veh_passenger" depart="92.19" departLane="best" departSpeed="max" from="413050335#0" to="413054286#3"/>
    <trip id="veh119" type="veh_passenger" depart="92.97" departLane="best" departSpeed="max" from="46171883#0" to="413045202"/>
    <trip id="veh120" type="veh_passenger" depart="93.75" departLane="best" departSpeed="max" from="413050335#0" to="124814435#3"/>
    <trip id="veh121" type="veh_passenger" depart="94.53" departLane="best" departSpeed="max" from="46171883#0" to="5669938#4"/>
    <trip id="veh122" type="veh_passenger" depart="95.32" departLane="best" departSpeed="max" from="46171883#0" to="127690685"/>
    <trip id="veh123" type="veh_passenger" depart="96.10" departLane="best" departSpeed="max" from="5669935#0" to="46171887"/>
    <trip id="veh124" type="veh_passenger" depart="96.88" departLane="best" departSpeed="max" from="5669866#0" to="124814435#3"/>
    <trip id="veh125" type="veh_passenger" depart="97.66" departLane="best" departSpeed="max" from="-127690685" to="-275016228#1"/>
    <trip id="veh126" type="veh_passenger" depart="98.44" departLane="best" departSpeed="max" from="275016228#0" to="413045202"/>
    <trip id="veh127" type="veh_passenger" depart="99.22" departLane="best" departSpeed="max" from="5669935#0" to="-275016228#1"/>
    <trip id="veh128" type="veh_passenger" depart="100.00" departLane="best" departSpeed="max" from="413050335#0" to="413054286#3"/>
    <trip id="veh129" type="veh_passenger" depart="100.78" departLane="best" departSpeed="max" from="46171883#0" to="127690685"/>
    <trip id="veh130" type="veh_passenger" depart="101.57" departLane="best" departSpeed="max" from="46171883#0" to="-275016228#1"/>
    <trip id="veh131" type="veh_passenger" depart="102.35" departLane="best" departSpeed="max" from="5669866#0" to="46171887"/>
    <trip id="veh133" type="veh_passenger" depart="103.91" departLane="best" departSpeed="max" from="46171883#0" to="-275016228#1"/>
    <trip id="veh134" type="veh_passenger" depart="104.69" departLane="best" departSpeed="max" from="46171883#0" to="46171887"/>
    <trip id="veh135" type="veh_passenger" depart="105.47" departLane="best" departSpeed="max" from="5671314#0" to="413054286#3"/>
    <trip id="veh136" type="veh_passenger" depart="106.25" departLane="best" departSpeed="max" from="5669866#0" to="413045202"/>
    <trip id="veh137" type="veh_passenger" depart="107.03" departLane="best" departSpeed="max" from="5669935#0" to="413054286#3"/>
    <trip id="veh138" type="veh_passenger" depart="107.82" departLane="best" departSpeed="max" from="5671314#0" to="46171887"/>
    <trip id="veh139" type="veh_passenger" depart="108.60" departLane="best" departSpeed="max" from="46171883#0" to="127690685"/>
    <trip id="veh140" type="veh_passenger" depart="109.38" departLane="best" departSpeed="max" from="275016228#0" to="413054286#3"/>
    <trip id="veh141" type="veh_passenger" depart="110.16" departLane="best" departSpeed="max" from="5669866#0" to="413045202"/>
    <trip id="veh142" type="veh_passenger" depart="110.94" departLane="best" departSpeed="max" from="46171883#0" to="127690685"/>
    <trip id="veh143" type="veh_passenger" depart="111.72" departLane="best" departSpeed="max" from="275016228#0" to="127690685"/>
    <trip id="veh144" type="veh_passenger" depart="112.50" departLane="best" departSpeed="max" from="275016228#0" to="46171887"/>
    <trip id="veh145" type="veh_passenger" depart="113.28" departLane="best" departSpeed="max" from="5669866#0" to="-275016228#1"/>
    <trip id="veh146" type="veh_passenger" depart="114.07" departLane="best" departSpeed="max" from="413050335#0" to="413054286#3"/>
    <trip id="veh147" type="veh_passenger" depart="114.85" departLane="best" departSpeed="max" from="413050335#0" to="124814435#3"/>
    <trip id="veh148" type="veh_passenger" depart="115.63" departLane="best" departSpeed="max" from="413050335#0" to="5669938#4"/>
    <trip id="veh149" type="veh_passenger" depart="116.41" departLane="best" departSpeed="max" from="46171883#0" to="46171887"/>
    <trip id="veh150" type="veh_passenger" depart="117.19" departLane="best" departSpeed="max" from="5669935#0" to="46171887"/>
    <trip id="veh151" type="veh_passenger" depart="117.97" departLane="best" departSpeed="max" from="413050335#0" to="-275016228#1"/>
    <trip id="veh152" type="veh_passenger" depart="118.75" departLane="best" departSpeed="max" from="413050335#0" to="46171887"/>
    <trip id="veh154" type="veh_passenger" depart="120.32" departLane="best" departSpeed="max" from="413050335#0" to="46171887"/>
    <trip id="veh155" type="veh_passenger" depart="121.10" departLane="best" departSpeed="max" from="413050335#0" to="-275016228#1"/>
    <trip id="veh156" type="veh_passenger" depart="121.88" departLane="best" departSpeed="max" from="413050335#0" to="413054286#3"/>
    <trip id="veh157" type="veh_passenger" depart="122.66" departLane="best" departSpeed="max" from="413050335#0" to="124814435#3"/>
    <trip id="veh158" type="veh_passenger" depart="123.44" departLane="best" departSpeed="max" from="46171883#0" to="-275016228#1"/>
    <trip id="veh159" type="veh_passenger" depart="124.22" departLane="best" departSpeed="max" from="413050335#0" to="413054286#3"/>
    <trip id="veh160" type="veh_passenger" depart="125.00" departLane="best" departSpeed="max" from="-127690685" to="413054286#3"/>
    <trip id="veh161" type="veh_passenger" depart="125.79" departLane="best" departSpeed="max" from="5669866#0" to="127690685"/>
    <trip id="veh162" type="veh_passenger" depart="126.57" departLane="best" departSpeed="max" from="5669866#0" to="46171887"/>
    <trip id="veh163" type="veh_passenger" depart="127.35" departLane="best" departSpeed="max" from="275016228#0" to="124814435#3"/>
    <trip id="veh164" type="veh_passenger" depart="128.13" departLane="best" departSpeed="max" from="-127690685" to="413054286#3"/>
    <trip id="veh165" type="veh_passenger" depart="128.91" departLane="best" departSpeed="max" from="46171883#0" to="46171887"/>
    <trip id="veh166" type="veh_passenger" depart="129.69" departLane="best" departSpeed="max" from="46171883#0" to="46171887"/>
    <trip id="veh167" type="veh_passenger" depart="130.47" departLane="best" departSpeed="max" from="5671314#0" to="124814435#3"/>
    <trip id="veh168" type="veh_passenger" depart="131.25" departLane="best" departSpeed="max" from="-127690685" to="413054286#3"/>
    <trip id="veh169" type="veh_passenger" depart="132.04" departLane="best" departSpeed="max" from="5669866#0" to="46171887"/>
    <trip id="veh170" type="veh_passenger" depart="132.82" departLane="best" departSpeed="max" from="-127690685" to="413054286#3"/>
    <trip id="veh171" type="veh_passenger" depart="133.60" departLane="best" departSpeed="max" from="5669866#0" to="124814435#3"/>
    <trip id="veh173" type="veh_passenger" depart="135.16" departLane="best" departSpeed="max" from="-127690685" to="-275016228#1"/>
    <trip id="veh174" type="veh_passenger" depart="135.94" departLane="best" departSpeed="max" from="275016228#0" to="413054286#3"/>
    <trip id="veh176" type="veh_passenger" depart="137.50" departLane="best" departSpeed="max" from="5669866#0" to="-275016228#1"/>
    <trip id="veh177" type="veh_passenger" depart="138.29" departLane="best" departSpeed="max" from="5669935#0" to="413054286#3"/>
    <trip id="veh179" type="veh_passenger" depart="139.85" departLane="best" departSpeed="max" from="46171883#0" to="127690685"/>
    <trip id="veh180" type="veh_passenger" depart="140.63" departLane="best" departSpeed="max" from="5669935#0" to="46171887"/>
    <trip id="veh182" type="veh_passenger" depart="142.19" departLane="best" departSpeed="max" from="46171883#0" to="46171887"/>
    <trip id="veh184" type="veh_passenger" depart="143.75" departLane="best" departSpeed="max" from="275016228#0" to="46171887"/>
    <trip id="veh185" type="veh_passenger" depart="144.54" departLane="best" departSpeed="max" from="46171883#0" to="413045202"/>
    <trip id="veh186" type="veh_passenger" depart="145.32" departLane="best" departSpeed="max" from="413050335#0" to="46171887"/>
    <trip id="veh187" type="veh_passenger" depart="146.10" departLane="best" departSpeed="max" from="413050335#0" to="-275016228#1"/>
    <trip id="veh188" type="veh_passenger" depart="146.88" departLane="best" departSpeed="max" from="413050335#0" to="5669938#4"/>
    <trip id="veh189" type="veh_passenger" depart="147.66" departLane="best" departSpeed="max" from="5669866#0" to="127690685"/>
    <trip id="veh191" type="veh_passenger" depart="149.22" departLane="best" departSpeed="max" from="46171883#0" to="46171887"/>
    <trip id="veh192" type="veh_passenger" depart="150.00" departLane="best" departSpeed="max" from="46171883#0" to="46171887"/>
    <trip id="veh193" type="veh_passenger" depart="150.79" departLane="best" departSpeed="max" from="5669866#0" to="127690685"/>
    <trip id="veh194" type="veh_passenger" depart="151.57" departLane="best" departSpeed="max" from="46171883#0" to="413045202"/>
    <trip id="veh195" type="veh_passenger" depart="152.35" departLane="best" departSpeed="max" from="5669866#0" to="127690685"/>
    <trip id="veh196" type="veh_passenger" depart="153.13" departLane="best" departSpeed="max" from="5669866#0" to="127690685"/>
    <trip id="veh197" type="veh_passenger" depart="153.91" departLane="best" departSpeed="max" from="275016228#0" to="124814435#3"/>
    <trip id="veh198" type="veh_passenger" depart="154.69" departLane="best" departSpeed="max" from="46171883#0" to="46171887"/>
    <trip id="veh199" type="veh_passenger" depart="155.47" departLane="best" departSpeed="max" from="46171883#0" to="46171887"/>
    <trip id="veh200" type="veh_passenger" depart="156.25" departLane="best" departSpeed="max" from="5671314#0" to="413045202"/>
    <trip id="veh201" type="veh_passenger" depart="157.04" departLane="best" departSpeed="max" from="275016228#0" to="124814435#3"/>
    <trip id="veh202" type="veh_passenger" depart="157.82" departLane="best" departSpeed="max" from="-127690685" to="-275016228#1"/>
    <trip id="veh203" type="veh_passenger" depart="158.60" departLane="best" departSpeed="max" from="46171883#0" to="127690685"/>
    <trip id="veh204" type="veh_passenger" depart="159.38" departLane="best" departSpeed="max" from="5671314#0" to="413054286#3"/>
    <trip id="veh205" type="veh_passenger" depart="160.16" departLane="best" departSpeed="max" from="5669866#0" to="124814435#3"/>
    <trip id="veh206" type="veh_passenger" depart="160.94" departLane="best" departSpeed="max" from="5669935#0" to="413054286#3"/>
    <trip id="veh207" type="veh_passenger" depart="161.72" departLane="best" departSpeed="max" from="-127690685" to="-275016228#1"/>
    <trip id="veh208" type="veh_passenger" depart="162.51" departLane="best" departSpeed="max" from="5671314#0" to="413045202"/>
    <trip id="veh209" type="veh_passenger" depart="163.29" departLane="best" departSpeed="max" from="-127690685" to="413054286#3"/>
    <trip id="veh210" type="veh_passenger" depart="164.07" departLane="best" departSpeed="max" from="46171883#0" to="127690685"/>
    <trip id="veh211" type="veh_passenger" depart="164.85" departLane="best" departSpeed="max" from="5671314#0" to="124814435#3"/>
    <trip id="veh212" type="veh_passenger" depart="165.63" departLane="best" departSpeed="max" from="413050335#0" to="5669938#4"/>
    <trip id="veh213" type="veh_passenger" depart="166.41" departLane="best" departSpeed="max" from="5671314#0" to="127690685"/>
    <trip id="veh214" type="veh_passenger" depart="167.19" departLane="best" departSpeed="max" from="-127690685" to="-275016228#1"/>
    <trip id="veh215" type="veh_passenger" depart="167.97" departLane="best" departSpeed="max" from="46171883#0" to="127690685"/>
    <trip id="veh216" type="veh_passenger" depart="168.76" departLane="best" departSpeed="max" from="275016228#0" to="46171887"/>
    <trip id="veh218" type="veh_passenger" depart="170.32" departLane="best" departSpeed="max" from="5669935#0" to="413054286#3"/>
    <trip id="veh219" type="veh_passenger" depart="171.10" departLane="best" departSpeed="max" from="413050335#0" to="413054286#3"/>
    <trip id="veh220" type="veh_passenger" depart="171.88" departLane="best" departSpeed="max" from="46171883#0" to="5669938#4"/>
    <trip id="veh221" type="veh_passenger" depart="172.66" departLane="best" departSpeed="max" from="5669935#0" to="-275016228#1"/>
    <trip id="veh222" type="veh_passenger" depart="173.44" departLane="best" departSpeed="max" from="275016228#0" to="124814435#3"/>
    <trip id="veh223" type="veh_passenger" depart="174.22" departLane="best" departSpeed="max" from="5669866#0" to="46171887"/>
    <trip id="veh224" type="veh_passenger" depart="175.01" departLane="best" departSpeed="max" from="5671314#0" to="413045202"/>
    <trip id="veh225" type="veh_passenger" depart="175.79" departLane="best" departSpeed="max" from="275016228#0" to="127690685"/>
    <trip id="veh227" type="veh_passenger" depart="177.35" departLane="best" departSpeed="max" from="5669935#0" to="413054286#3"/>
    <trip id="veh228" type="veh_passenger" depart="178.13" departLane="best" departSpeed="max" from="5671314#0" to="68668562#1"/>
    <trip id="veh229" type="veh_passenger" depart="178.91" departLane="best" departSpeed="max" from="5669866#0" to="127690685"/>
    <trip id="veh230" type="veh_passenger" depart="179.69" departLane="best" departSpeed="max" from="5671314#0" to="124814435#3"/>
    <trip id="veh231" type="veh_passenger" depart="180.47" departLane="best" departSpeed="max" from="275016228#0" to="46171887"/>
    <trip id="veh233" type="veh_passenger" depart="182.04" departLane="best" departSpeed="max" from="5669935#0" to="413054286#3"/>
    <trip id="veh234" type="veh_passenger" depart="182.82" departLane="best" departSpeed="max" from="46171883#0" to="127690685"/>
    <trip id="veh236" type="veh_passenger" depart="184.38" departLane="best" departSpeed="max" from="5671314#0" to="413054286#3"/>
    <trip id="veh237" type="veh_passenger" depart="185.16" departLane="best" departSpeed="max" from="5669866#0" to="124814435#3"/>
    <trip id="veh238" type="veh_passenger" depart="185.94" departLane="best" departSpeed="max" from="413050335#0" to="46171887"/>
    <trip id="veh240" type="veh_passenger" depart="187.51" departLane="best" departSpeed="max" from="46171883#0" to="127690685"/>
    <trip id="veh241" type="veh_passenger" depart="188.29" departLane="best" departSpeed="max" from="-127690685" to="413054286#3"/>
    <trip id="veh242" type="veh_passenger" depart="189.07" departLane="best" departSpeed="max" from="5669866#0" to="413045202"/>
    <trip id="veh243" type="veh_passenger" depart="189.85" departLane="best" departSpeed="max" from="275016228#0" to="46171887"/>
    <trip id="veh244" type="veh_passenger" depart="190.63" departLane="best" departSpeed="max" from="5671314#0" to="127690685"/>
    <trip id="veh245" type="veh_passenger" depart="191.41" departLane="best" departSpeed="max" from="46171883#0" to="127690685"/>
    <trip id="veh246" type="veh_passenger" depart="192.19" departLane="best" departSpeed="max" from="5671314#0" to="413045202"/>
    <trip id="veh247" type="veh_passenger" depart="192.97" departLane="best" departSpeed="max" from="5669935#0" to="5669938#4"/>
    <trip id="veh248" type="veh_passenger" depart="193.76" departLane="best" departSpeed="max" from="275016228#0" to="46171887"/>
    <trip id="veh250" type="veh_passenger" depart="195.32" departLane="best" departSpeed="max" from="46171883#0" to="46171887"/>
    <trip id="veh251" type="veh_passenger" depart="196.10" departLane="best" departSpeed="max" from="275016228#0" to="127690685"/>
    <trip id="veh252" type="veh_passenger" depart="196.88" departLane="best" departSpeed="max" from="46171883#0" to="127690685"/>
    <trip id="veh253" type="veh_passenger" depart="197.66" departLane="best" departSpeed="max" from="46171883#0" to="127690685"/>