<?xml version="1.0" encoding="UTF-8"?>

<!-- generated on Wed Sep 11 16:43:51 2019 by Eclipse SUMO polyconvert Version 1.2.0
<configuration xmlns:xsi="http://www.w3.org/2001/XMLSchema-instance" xsi:noNamespaceSchemaLocation="http://sumo.dlr.de/xsd/polyconvertConfiguration.xsd">

    <input>
        <net-file value="osm.net.xml"/>
        <osm-files value="osm_bbox.osm.xml"/>
        <osm.keep-full-type value="true"/>
        <type-file value="/usr/share/sumo/data/typemap/osmPolyconvert.typ.xml"/>
    </input>

    <output>
        <output-file value="osm.poly.xml"/>
    </output>

    <processing>
        <poi-layer-offset value="5"/>
    </processing>

    <report>
        <verbose value="true"/>
    </report>

</configuration>
-->

<additional xmlns:xsi="http://www.w3.org/2001/XMLSchema-instance" xsi:noNamespaceSchemaLocation="http://sumo.dlr.de/xsd/additional_file.xsd">
    <location netOffset="-583381.10,-4506319.56" convBoundary="-0.00,0.00,2183.36,5933.18" origBoundary="-74.012793,40.703455,-73.986330,40.756786" projParameter="+proj=utm +zone=18 +ellps=WGS84 +datum=WGS84 +units=m +no_defs"/>

    <poly id="124814434" type="leisure.park" color="207,245,201" fill="1" layer="-2.00" shape="307.677871,1392.572855 297.717221,1398.666541 295.225881,1348.434907 305.417111,1346.618112 307.677871,1392.572855"/>
    <poly id="147035202" type="leisure.park" color="207,245,201" fill="1" layer="-2.00" shape="301.574843,1520.222161 299.399910,1500.358233 264.795646,1521.705781 264.558824,1525.477812 301.574843,1520.222161"/>
    <poly id="250051467" type="building.yes" color="255,230,230" fill="1" layer="-1.00" shape="255.937412,1542.422267 240.520105,1544.768614 244.122630,1568.390013 244.319141,1569.691170 259.744843,1567.344926 255.937412,1542.422267"/>
    <poly id="250051520" type="building.yes" color="255,230,230" fill="1" layer="-1.00" shape="255.292472,1570.403301 255.992483,1574.996347 252.870107,1575.471836 256.260676,1597.658687 271.804821,1595.291601 267.714293,1568.511695 260.098758,1569.669249 255.292472,1570.403301"/>
    <poly id="250051526" type="building.yes" color="255,230,230" fill="1" layer="-1.00" shape="274.804127,1563.784457 279.360515,1594.943835 309.219901,1590.573396 304.671954,1559.425194 274.804127,1563.784457"/>
    <poly id="250051529" type="building.yes" color="255,230,230" fill="1" layer="-1.00" shape="263.553099,1541.253607 255.937412,1542.422267 259.744843,1567.344926 260.098758,1569.669249 267.714293,1568.511695 263.553099,1541.253607"/>
    <poly id="250051541" type="building.yes" color="255,230,230" fill="1" layer="-1.00" shape="302.052946,1541.488012 302.763676,1541.385010 301.869817,1535.257687 295.718560,1536.154173 295.843806,1537.032649 271.416414,1540.598444 274.804127,1563.784457 304.671954,1559.425194 302.052946,1541.488012"/>
    <poly id="250052641" type="building.yes" color="255,230,230" fill="1" layer="-1.00" shape="517.813874,1535.376694 504.558293,1543.009330 519.586447,1569.102644 532.841998,1561.470035 531.284514,1558.765713 517.813874,1535.376694"/>
    <poly id="250052674" type="building.yes" color="255,230,230" fill="1" layer="-1.00" shape="473.361718,1579.704215 466.422002,1583.844553 469.754596,1589.433263 476.694309,1585.292927 473.361718,1579.704215"/>
    <poly id="250052675" type="building.yes" color="255,230,230" fill="1" layer="-1.00" shape="487.869202,1589.094059 487.205939,1587.987454 489.076886,1586.876197 485.130838,1580.259152 476.694309,1585.292927 469.754596,1589.433263 474.363916,1597.156903 487.367367,1589.399243 487.869202,1589.094059"/>
    <poly id="250052700" type="building.yes" color="255,230,230" fill="1" layer="-1.00" shape="487.869441,1578.613703 476.943017,1560.304970 465.767869,1566.984211 473.361718,1579.704215 476.694309,1585.292927 485.130838,1580.259152 487.869441,1578.613703"/>
    <poly id="250052702" type="building.yes" color="255,230,230" fill="1" layer="-1.00" shape="483.457567,1556.415181 476.943017,1560.304970 487.869441,1578.613703 491.815487,1585.230749 498.338469,1581.341069 483.457567,1556.415181"/>
    <poly id="250052704" type="building.yes" color="255,230,230" fill="1" layer="-1.00" shape="483.457567,1556.415181 498.338469,1581.341069 506.502859,1576.470771 491.630420,1551.544962 483.457567,1556.415181"/>
    <poly id="250052709" type="building.yes" color="255,230,230" fill="1" layer="-1.00" shape="531.120536,1527.711352 517.813874,1535.376694 531.284514,1558.765713 544.599595,1551.100492 531.120536,1527.711352"/>
    <poly id="250052729" type="building.university" color="255,230,230" fill="1" layer="-1.00" shape="526.165568,1565.480073 519.586447,1569.102644 503.714591,1543.665913 491.630420,1551.544962 506.502859,1576.470771 498.338469,1581.341069 491.815487,1585.230749 489.076886,1586.876197 487.205939,1587.987454 487.869202,1589.094059 491.740733,1595.577038 491.230578,1595.871026 478.335678,1603.740928 489.195251,1622.726136 541.658135,1591.578689 526.165568,1565.480073"/>
    <poly id="250052732" type="building.yes" color="255,230,230" fill="1" layer="-1.00" shape="364.591386,1604.021239 364.773690,1604.334156 372.120120,1600.076193 377.527811,1596.950961 407.101710,1579.721492 407.250856,1579.978524 426.230018,1568.913231 418.424253,1555.502556 405.928213,1534.045418 398.627059,1521.573040 380.123941,1532.366229 380.314442,1532.701442 350.264182,1550.214296 344.762435,1553.438406 344.530328,1553.047214 337.438632,1557.185956 331.579903,1560.605883 333.303625,1563.556283 333.809068,1564.427949 339.095965,1573.502498 334.036570,1576.454056 341.801484,1589.753158 340.066826,1590.766071 335.891725,1593.205812 346.573378,1611.522669 347.781946,1613.712317 359.158117,1607.168396 364.591386,1604.021239"/>
    <poly id="250052745" type="building.yes" color="255,230,230" fill="1" layer="-1.00" shape="465.767869,1566.984211 458.828146,1571.124557 466.422002,1583.844553 473.361718,1579.704215 465.767869,1566.984211"/>
    <poly id="250052760" type="building.yes" color="255,230,230" fill="1" layer="-1.00" shape="449.289441,1524.943147 476.806763,1508.845319 462.436714,1484.291626 422.410685,1507.708769 437.700529,1533.849271 450.217724,1526.519030 449.289441,1524.943147"/>
    <poly id="250052775" type="building.yes" color="255,230,230" fill="1" layer="-1.00" shape="546.728683,1554.799369 550.733322,1552.502143 549.482320,1550.334185 553.580624,1547.971408 554.831625,1550.139367 560.426378,1546.916463 544.818388,1519.817317 531.120536,1527.711352 544.599595,1551.100492 546.728683,1554.799369"/>
    <poly id="250052777" type="building.yes" color="255,230,230" fill="1" layer="-1.00" shape="477.726470,1510.432211 468.959338,1515.562178 472.000739,1520.759023 459.475067,1528.089132 456.425214,1522.892197 450.217724,1526.519030 437.700529,1533.849271 449.965508,1554.815362 535.179135,1504.964705 520.693407,1480.198646 507.624648,1457.857793 462.436714,1484.291626 476.806763,1508.845319 477.726470,1510.432211"/>
    <poly id="250052781" type="building.yes" color="255,230,230" fill="1" layer="-1.00" shape="490.560764,1510.177642 487.859515,1505.528637 485.058666,1500.723078 484.337777,1499.482598 514.065352,1482.166461 517.197636,1487.541986 500.080527,1497.506801 503.137050,1502.859258 490.560764,1510.177642"/>
    <poly id="250269508" type="building.yes" color="255,230,230" fill="1" layer="-1.00" shape="548.764432,1307.679123 542.769888,1311.130660 555.155382,1332.653383 561.149789,1329.212957 548.764432,1307.679123"/>
    <poly id="250269509" type="building.yes" color="255,230,230" fill="1" layer="-1.00" shape="539.870276,1306.090822 532.736380,1310.195601 548.012930,1336.769153 555.155382,1332.653383 542.769888,1311.130660 539.870276,1306.090822"/>
    <poly id="250269511" type="building.yes" color="255,230,230" fill="1" layer="-1.00" shape="532.736380,1310.195601 519.514552,1317.795294 534.799579,1344.368914 548.012930,1336.769153 532.736380,1310.195601"/>
    <poly id="250269512" type="building.yes" color="255,230,230" fill="1" layer="-1.00" shape="498.751599,1327.419130 508.436268,1344.259466 515.039104,1355.735966 521.875441,1351.794336 505.604594,1323.499877 498.751599,1327.419130"/>
    <poly id="250269513" type="building.yes" color="255,230,230" fill="1" layer="-1.00" shape="498.072299,1326.234629 493.259626,1329.011240 492.116238,1327.033246 488.732102,1328.982255 489.867045,1330.960153 484.909912,1333.812850 501.876876,1363.303057 515.039104,1355.735966 508.436268,1344.259466 498.751599,1327.419130 498.072299,1326.234629"/>
    <poly id="250269520" type="building.yes" color="255,230,230" fill="1" layer="-1.00" shape="545.221792,1300.489308 557.865551,1293.216180 546.383078,1273.257962 533.739423,1280.520008 545.221792,1300.489308"/>
    <poly id="250269521" type="building.yes" color="255,230,230" fill="1" layer="-1.00" shape="533.739423,1280.520008 526.809477,1284.516081 537.919052,1303.837231 538.291984,1304.474268 545.221792,1300.489308 533.739423,1280.520008"/>
    <poly id="250269522" type="building.yes" color="255,230,230" fill="1" layer="-1.00" shape="526.809477,1284.516081 520.126369,1288.348420 530.506984,1306.395678 531.244276,1307.680757 537.919052,1303.837231 526.809477,1284.516081"/>
    <poly id="250269523" type="building.yes" color="255,230,230" fill="1" layer="-1.00" shape="520.126369,1288.348420 506.938428,1295.937417 510.790827,1302.631123 517.319188,1313.973556 530.506984,1306.395678 520.126369,1288.348420"/>
    <poly id="250269524" type="building.yes" color="255,230,230" fill="1" layer="-1.00" shape="494.022683,1303.362984 478.624043,1312.225977 487.695792,1327.993556 503.094286,1319.141682 494.022683,1303.362984"/>
    <poly id="250269526" type="building.yes" color="255,230,230" fill="1" layer="-1.00" shape="519.641281,1213.226327 513.841073,1216.668984 525.106719,1235.647711 526.748241,1238.397387 532.539992,1234.954644 528.229420,1227.689541 519.641281,1213.226327"/>
    <poly id="250269527" type="building.yes" color="255,230,230" fill="1" layer="-1.00" shape="513.841073,1216.668984 507.309448,1220.547457 518.575104,1239.526174 525.106719,1235.647711 513.841073,1216.668984"/>
    <poly id="250269531" type="building.yes" color="255,230,230" fill="1" layer="-1.00" shape="471.802019,1296.217390 491.243622,1284.668983 481.992189,1269.099208 474.635672,1273.467976 467.581103,1261.586736 475.082221,1257.130779 467.662891,1244.634802 447.209193,1256.782449 454.769374,1269.524242 462.559538,1264.905008 469.415161,1276.450932 462.500886,1280.558261 471.802019,1296.217390"/>
    <poly id="250269532" type="building.yes" color="255,230,230" fill="1" layer="-1.00" shape="554.228406,1212.252027 537.406002,1222.242308 542.537328,1230.882257 533.131064,1236.471212 532.539992,1234.954644 526.748241,1238.397387 537.267825,1256.113162 537.756876,1256.940247 543.420916,1253.584886 543.059568,1252.670428 539.461853,1246.612405 565.469372,1231.163925 554.228406,1212.252027"/>
    <poly id="250269535" type="building.yes" color="255,230,230" fill="1" layer="-1.00" shape="565.469372,1231.163925 539.461853,1246.612405 543.059568,1252.670428 569.066948,1237.233062 565.469372,1231.163925"/>
    <poly id="250269537" type="building.yes" color="255,230,230" fill="1" layer="-1.00" shape="434.939973,1263.060809 428.289302,1267.015719 452.454015,1307.711394 459.104664,1303.756506 434.939973,1263.060809"/>
    <poly id="250269541" type="building.yes" color="255,230,230" fill="1" layer="-1.00" shape="487.706041,1232.193915 480.647120,1236.388410 504.604386,1276.737748 511.663284,1272.543276 487.706041,1232.193915"/>
    <poly id="250269546" type="building.yes" color="255,230,230" fill="1" layer="-1.00" shape="525.015486,1371.425010 498.528852,1386.712773 524.933282,1432.463278 551.419813,1417.175610 525.015486,1371.425010"/>
    <poly id="250269549" type="building.yes" color="255,230,230" fill="1" layer="-1.00" shape="493.650820,1228.664056 487.706041,1232.193915 511.663284,1272.543276 517.608043,1269.013437 517.069191,1268.108075 493.650820,1228.664056"/>
    <poly id="250269553" type="building.yes" color="255,230,230" fill="1" layer="-1.00" shape="483.708777,1331.712082 469.636629,1339.812944 487.804891,1371.392783 501.876876,1363.303057 484.909912,1333.812850 483.708777,1331.712082"/>
    <poly id="250269556" type="building.yes" color="255,230,230" fill="1" layer="-1.00" shape="488.317225,1329.066380 487.695792,1327.993556 478.624043,1312.225977 459.951992,1322.961559 469.636629,1339.812944 483.708777,1331.712082 488.317225,1329.066380"/>
    <poly id="250269563" type="building.yes" color="255,230,230" fill="1" layer="-1.00" shape="459.673963,1275.807932 458.551377,1276.472471 446.506211,1256.197198 434.939973,1263.060809 459.104664,1303.756506 471.802019,1296.217390 462.500886,1280.558261 459.673963,1275.807932"/>
    <poly id="250269565" type="building.yes" color="255,230,230" fill="1" layer="-1.00" shape="525.106719,1235.647711 518.575104,1239.526174 507.309448,1220.547457 493.650820,1228.664056 517.069191,1268.108075 537.267825,1256.113162 526.748241,1238.397387 525.106719,1235.647711"/>
    <poly id="250269572" type="building.yes" color="255,230,230" fill="1" layer="-1.00" shape="506.938428,1295.937417 494.022683,1303.362984 503.094286,1319.141682 505.604594,1323.499877 521.875441,1351.794336 534.799579,1344.368914 519.514552,1317.795294 517.319188,1313.973556 510.790827,1302.631123 506.938428,1295.937417"/>
    <poly id="261499928" type="building.apartments" color="255,230,230" fill="1" layer="-1.00" shape="541.658135,1591.578689 526.165568,1565.480073 532.841998,1561.470035 531.284514,1558.765713 544.599595,1551.100492 546.728683,1554.799369 550.733322,1552.502143 554.831625,1550.139367 560.426378,1546.916463 574.648122,1571.846152 541.658135,1591.578689"/>
    <poly id="277881195" type="building.apartments" color="255,230,230" fill="1" layer="-1.00" shape="411.149942,1352.208100 384.986453,1367.322281 393.561951,1382.162667 419.716961,1367.048422 411.149942,1352.208100"/>
    <poly id="277881196" type="building.yes" color="255,230,230" fill="1" layer="-1.00" shape="363.918882,1332.124006 352.880526,1338.638434 353.875047,1340.337174 351.902077,1341.502825 362.487357,1359.407825 375.498788,1351.716665 370.525334,1343.300657 363.918882,1332.124006"/>
    <poly id="277881197" type="building.yes" color="255,230,230" fill="1" layer="-1.00" shape="384.986453,1367.322281 365.183295,1378.755855 374.032157,1394.076694 387.067000,1386.552351 386.785214,1386.071780 393.561951,1382.162667 384.986453,1367.322281"/>
    <poly id="277881198" type="building.yes" color="255,230,230" fill="1" layer="-1.00" shape="351.512490,1340.843405 344.734611,1344.852462 355.709489,1363.416871 362.487357,1359.407825 351.902077,1341.502825 351.512490,1340.843405"/>
    <poly id="277881199" type="building.yes" color="255,230,230" fill="1" layer="-1.00" shape="376.649013,1248.347220 370.041722,1252.202753 381.594525,1271.961641 388.201930,1268.095018 376.649013,1248.347220"/>
    <poly id="277881200" type="building.yes" color="255,230,230" fill="1" layer="-1.00" shape="365.183295,1378.755855 358.644572,1382.534455 367.692395,1398.190594 374.222663,1394.411907 374.032157,1394.076694 365.183295,1378.755855"/>
    <poly id="277881201" type="building.yes" color="255,230,230" fill="1" layer="-1.00" shape="391.124441,1288.322678 384.508104,1292.233605 395.623673,1311.055009 402.239999,1307.144091 391.124441,1288.322678"/>
    <poly id="277881202" type="building.yes" color="255,230,230" fill="1" layer="-1.00" shape="344.734611,1344.852462 338.186421,1348.719791 349.161309,1367.284190 355.709489,1363.416871 344.734611,1344.852462"/>
    <poly id="277881203" type="building.yes" color="255,230,230" fill="1" layer="-1.00" shape="369.851087,1251.878641 363.260821,1255.723270 375.012717,1275.806355 381.594525,1271.961641 370.041722,1252.202753 369.851087,1251.878641"/>
    <poly id="277881204" type="building.yes" color="255,230,230" fill="1" layer="-1.00" shape="363.260821,1255.723270 356.899996,1259.448372 368.643455,1279.531352 375.012717,1275.806355 363.260821,1255.723270"/>
    <poly id="277881205" type="building.yes" color="255,230,230" fill="1" layer="-1.00" shape="378.129903,1296.002901 364.769815,1303.889959 376.059656,1322.990851 376.623233,1323.951992 389.983299,1316.064956 378.129903,1296.002901"/>
    <poly id="277881206" type="building.yes" color="255,230,230" fill="1" layer="-1.00" shape="356.899996,1259.448372 350.122543,1263.413022 350.644647,1264.307080 361.874460,1283.496086 368.643455,1279.531352 356.899996,1259.448372"/>
    <poly id="277881207" type="building.yes" color="255,230,230" fill="1" layer="-1.00" shape="350.644647,1264.307080 344.003222,1268.195557 355.224600,1287.384457 361.874460,1283.496086 350.644647,1264.307080"/>
    <poly id="277881208" type="building.yes" color="255,230,230" fill="1" layer="-1.00" shape="351.775333,1311.570227 345.414184,1315.328641 355.792119,1332.898227 362.153258,1329.139822 351.775333,1311.570227"/>
    <poly id="277881209" type="building.yes" color="255,230,230" fill="1" layer="-1.00" shape="332.248487,1278.299000 325.777267,1282.078393 335.598155,1298.864517 342.060920,1295.085038 332.248487,1278.299000"/>
    <poly id="277881210" type="building.yes" color="255,230,230" fill="1" layer="-1.00" shape="454.660955,1411.418562 434.644009,1423.082679 435.149575,1423.943251 445.466384,1441.656611 465.483174,1430.003624 454.660955,1411.418562"/>
    <poly id="277881211" type="building.yes" color="255,230,230" fill="1" layer="-1.00" shape="442.445654,1361.365613 436.238540,1364.948057 451.582881,1391.522172 457.798427,1387.939837 442.445654,1361.365613"/>
    <poly id="277881212" type="building.yes" color="255,230,230" fill="1" layer="-1.00" shape="373.992169,1478.418650 369.948239,1471.478606 363.290092,1475.366873 358.774689,1478.013700 359.189106,1478.717808 356.986745,1480.002990 360.624837,1486.227913 361.730240,1485.585370 373.992169,1478.418650"/>
    <poly id="277881213" type="building.yes" color="255,230,230" fill="1" layer="-1.00" shape="434.076057,1361.204430 424.042626,1366.997371 441.996923,1398.086188 452.030327,1392.293271 451.582881,1391.522172 436.238540,1364.948057 434.076057,1361.204430"/>
    <poly id="277881214" type="building.yes" color="255,230,230" fill="1" layer="-1.00" shape="275.867161,1431.326608 269.107175,1435.258218 277.303053,1449.317043 284.054585,1445.385345 278.809004,1436.377919 275.867161,1431.326608"/>
    <poly id="277881215" type="building.yes" color="255,230,230" fill="1" layer="-1.00" shape="373.992169,1478.418650 361.730240,1485.585370 365.534117,1492.089719 377.795914,1484.934106 373.992169,1478.418650"/>
    <poly id="277881216" type="building.yes" color="255,230,230" fill="1" layer="-1.00" shape="254.579859,1395.360129 248.406653,1398.943108 249.873368,1401.468710 260.073775,1419.058365 266.255416,1415.475490 265.658798,1414.447372 258.623689,1402.322308 254.579859,1395.360129"/>
    <poly id="277881217" type="building.yes" color="255,230,230" fill="1" layer="-1.00" shape="406.412932,1457.479917 403.045646,1459.440255 403.625725,1460.434891 396.780604,1464.420935 399.382451,1468.902251 409.603425,1462.944867 406.412932,1457.479917"/>
    <poly id="277881218" type="building.yes" color="255,230,230" fill="1" layer="-1.00" shape="269.107175,1435.258218 262.806299,1438.928563 270.993738,1452.987285 277.303053,1449.317043 269.107175,1435.258218"/>
    <poly id="277881219" type="building.yes" color="255,230,230" fill="1" layer="-1.00" shape="377.795914,1484.934106 365.534117,1492.089719 369.354378,1498.638663 381.624739,1491.472051 377.795914,1484.934106"/>
    <poly id="277881220" type="building.yes" color="255,230,230" fill="1" layer="-1.00" shape="249.873368,1401.468710 229.542717,1413.263060 228.755457,1411.910837 222.072122,1415.787844 233.059829,1434.729683 260.073775,1419.058365 249.873368,1401.468710"/>
    <poly id="277881221" type="building.yes" color="255,230,230" fill="1" layer="-1.00" shape="413.776831,1462.159355 411.873747,1461.627162 409.603425,1462.944867 399.382451,1468.902251 404.462198,1477.619241 416.953485,1470.344160 417.779248,1469.032343 416.221450,1466.350247 413.776831,1462.159355"/>
    <poly id="277881222" type="building.yes" color="255,230,230" fill="1" layer="-1.00" shape="381.624739,1491.472051 369.354378,1498.638663 373.058767,1504.975361 385.328996,1497.819856 381.624739,1491.472051"/>
    <poly id="277881223" type="building.yes" color="255,230,230" fill="1" layer="-1.00" shape="424.042626,1366.997371 414.196159,1372.692519 432.150482,1403.781312 441.996923,1398.086188 424.042626,1366.997371"/>
    <poly id="277881224" type="building.yes" color="255,230,230" fill="1" layer="-1.00" shape="417.779248,1469.032343 416.953485,1470.344160 404.462198,1477.619241 406.923333,1481.843622 420.604990,1473.882564 417.779248,1469.032343"/>
    <poly id="277881225" type="building.yes" color="255,230,230" fill="1" layer="-1.00" shape="414.196159,1372.692519 403.584521,1378.823120 404.338595,1380.119477 421.538997,1409.900786 432.150482,1403.781312 414.196159,1372.692519"/>
    <poly id="277881226" type="building.yes" color="255,230,230" fill="1" layer="-1.00" shape="262.806299,1438.928563 243.095808,1450.419009 251.283270,1464.477710 270.993738,1452.987285 262.806299,1438.928563"/>
    <poly id="277881227" type="building.yes" color="255,230,230" fill="1" layer="-1.00" shape="275.783781,1355.576292 269.253406,1359.366166 279.876580,1377.671146 286.406945,1373.881281 275.783781,1355.576292"/>
    <poly id="277881228" type="building.yes" color="255,230,230" fill="1" layer="-1.00" shape="415.736517,1435.247872 409.095457,1439.114089 419.462105,1456.905689 426.103155,1453.039483 422.092291,1446.166396 415.736517,1435.247872"/>
    <poly id="277881229" type="building.yes" color="255,230,230" fill="1" layer="-1.00" shape="404.338595,1380.119477 392.995702,1386.674814 410.196133,1416.456097 421.538997,1409.900786 404.338595,1380.119477"/>
    <poly id="277881231" type="building.yes" color="255,230,230" fill="1" layer="-1.00" shape="269.253406,1359.366166 261.872770,1363.646052 262.759382,1365.177031 271.170203,1379.660147 273.498559,1383.683147 280.879308,1379.392172 279.876580,1377.671146 269.253406,1359.366166"/>
    <poly id="277881232" type="building.yes" color="255,230,230" fill="1" layer="-1.00" shape="409.095457,1439.114089 402.224850,1443.110943 409.533649,1455.661121 412.831684,1461.327126 419.702406,1457.319181 419.462105,1456.905689 409.095457,1439.114089"/>
    <poly id="277881234" type="building.yes" color="255,230,230" fill="1" layer="-1.00" shape="392.241752,1385.367357 381.621580,1391.508994 399.576114,1422.586607 410.196133,1416.456097 392.995702,1386.674814 392.241752,1385.367357"/>
    <poly id="277881236" type="building.yes" color="255,230,230" fill="1" layer="-1.00" shape="409.533649,1455.661121 402.224850,1443.110943 395.736840,1446.890082 403.045646,1459.440255 406.412932,1457.479917 409.533649,1455.661121"/>
    <poly id="277881237" type="building.yes" color="255,230,230" fill="1" layer="-1.00" shape="381.621580,1391.508994 372.965686,1396.507107 390.920117,1427.595800 399.576114,1422.586607 381.621580,1391.508994"/>
    <poly id="277881244" type="building.yes" color="255,230,230" fill="1" layer="-1.00" shape="359.370213,1468.661380 352.661016,1472.582386 356.986745,1480.002990 359.189106,1478.717808 358.774689,1478.013700 363.290092,1475.366873 359.370213,1468.661380"/>
    <poly id="277881247" type="building.yes" color="255,230,230" fill="1" layer="-1.00" shape="352.661016,1472.582386 345.994309,1476.481674 357.148904,1495.569920 363.807029,1491.681647 360.624837,1486.227913 356.986745,1480.002990 352.661016,1472.582386"/>
    <poly id="277881249" type="building.yes" color="255,230,230" fill="1" layer="-1.00" shape="345.994309,1476.481674 339.472322,1480.282682 347.461246,1493.950682 350.626802,1499.382019 357.148904,1495.569920 345.994309,1476.481674"/>
    <poly id="277881250" type="building.yes" color="255,230,230" fill="1" layer="-1.00" shape="267.795643,1459.423723 265.857386,1459.013294 260.712982,1462.008353 259.777130,1464.096090 277.146320,1493.923370 285.173384,1489.240017 275.875376,1473.292503 272.834195,1468.062439 267.795643,1459.423723"/>
    <poly id="277881251" type="building.yes" color="255,230,230" fill="1" layer="-1.00" shape="258.782606,1462.397363 252.286117,1466.187632 270.641528,1497.702428 277.146320,1493.923370 259.777130,1464.096090 258.782606,1462.397363"/>
    <poly id="277881252" type="building.yes" color="255,230,230" fill="1" layer="-1.00" shape="251.283270,1464.477710 244.599844,1468.365797 245.735204,1470.310355 247.980958,1474.165886 263.957995,1501.601598 270.641528,1497.702428 252.286117,1466.187632 251.283270,1464.477710"/>
    <poly id="277881253" type="building.yes" color="255,230,230" fill="1" layer="-1.00" shape="247.980958,1474.165886 241.391076,1477.999520 257.376575,1505.435313 263.957995,1501.601598 247.980958,1474.165886"/>
    <poly id="277881257" type="building.yes" color="255,230,230" fill="1" layer="-1.00" shape="439.951840,1357.040933 442.445654,1361.365613 457.798427,1387.939837 464.634828,1383.987054 446.788259,1353.088134 439.951840,1357.040933"/>
    <poly id="277881265" type="building.yes" color="255,230,230" fill="1" layer="-1.00" shape="344.848651,1503.890849 324.494768,1506.525470 325.489447,1514.197121 345.843309,1511.562503 344.848651,1503.890849"/>
    <poly id="277881266" type="building.yes" color="255,230,230" fill="1" layer="-1.00" shape="350.542051,1513.625015 349.091785,1511.143986 345.843309,1511.562503 325.489447,1514.197121 326.507081,1522.079970 351.217600,1518.883919 350.542051,1513.625015"/>
    <poly id="277881267" type="building.yes" color="255,230,230" fill="1" layer="-1.00" shape="351.217600,1518.883919 326.507081,1522.079970 327.447142,1529.351331 352.157763,1526.144183 352.072624,1525.454893 351.217600,1518.883919"/>
    <poly id="277881268" type="building.yes" color="255,230,230" fill="1" layer="-1.00" shape="341.319154,1232.816295 334.541686,1236.780960 347.901486,1259.613251 354.678941,1255.648599 341.319154,1232.816295"/>
    <poly id="277881269" type="building.yes" color="255,230,230" fill="1" layer="-1.00" shape="334.541686,1236.780960 327.900246,1240.669450 341.260059,1263.501730 347.901486,1259.613251 334.541686,1236.780960"/>
    <poly id="277881270" type="building.yes" color="255,230,230" fill="1" layer="-1.00" shape="314.736515,1248.370080 308.273724,1252.149583 314.737997,1263.213553 317.075190,1267.203359 323.373763,1277.976815 329.844986,1274.197421 314.736515,1248.370080"/>
    <poly id="277881271" type="building.yes" color="255,230,230" fill="1" layer="-1.00" shape="467.007930,1432.618744 459.984122,1436.713732 475.140107,1462.741775 475.496393,1463.356416 482.520185,1459.261443 482.163899,1458.646801 467.007930,1432.618744"/>
    <poly id="277881272" type="building.yes" color="255,230,230" fill="1" layer="-1.00" shape="317.075190,1267.203359 315.272265,1268.271019 312.935195,1264.270114 314.737997,1263.213553 308.273724,1252.149583 295.986032,1259.327228 307.141352,1278.393184 312.957930,1274.983860 316.919440,1281.756406 323.373763,1277.976815 317.075190,1267.203359"/>
    <poly id="277881273" type="building.yes" color="255,230,230" fill="1" layer="-1.00" shape="459.561517,1435.987321 453.413580,1439.570418 454.233954,1440.978550 469.000629,1466.324954 475.140107,1462.741775 459.984122,1436.713732 459.561517,1435.987321"/>
    <poly id="277881274" type="building.yes" color="255,230,230" fill="1" layer="-1.00" shape="454.233954,1440.978550 447.388787,1444.964549 462.155478,1470.310938 469.000629,1466.324954 454.233954,1440.978550"/>
    <poly id="277881275" type="building.yes" color="255,230,230" fill="1" layer="-1.00" shape="429.384537,1458.683102 422.743490,1462.549306 436.101461,1485.481681 442.742496,1481.615489 429.384537,1458.683102"/>
    <poly id="277881276" type="building.yes" color="255,230,230" fill="1" layer="-1.00" shape="422.743490,1462.549306 416.221450,1466.350247 417.779248,1469.032343 420.604990,1473.882564 430.084870,1490.154283 436.615344,1486.353449 436.101461,1485.481681 422.743490,1462.549306"/>
    <poly id="277881277" type="building.yes" color="255,230,230" fill="1" layer="-1.00" shape="361.772690,1498.286615 353.150341,1503.318433 366.550426,1526.273360 375.172884,1521.230457 361.772690,1498.286615"/>
    <poly id="277881278" type="building.yes" color="255,230,230" fill="1" layer="-1.00" shape="353.150341,1503.318433 349.508496,1501.167930 348.709164,1501.636297 344.848651,1503.890849 349.091785,1511.143986 350.542051,1513.625015 357.072210,1524.811902 360.121880,1530.030996 366.550426,1526.273360 353.150341,1503.318433"/>
    <poly id="277881279" type="building.yes" color="255,230,230" fill="1" layer="-1.00" shape="424.269986,1344.629272 417.697165,1348.429641 426.264176,1363.269970 426.761427,1364.119345 433.342685,1360.319080 424.269986,1344.629272"/>
    <poly id="277881280" type="building.yes" color="255,230,230" fill="1" layer="-1.00" shape="404.478032,1310.932969 397.861707,1314.843885 408.231450,1332.380148 414.839193,1328.480247 404.478032,1310.932969"/>
    <poly id="277881281" type="building.yes" color="255,230,230" fill="1" layer="-1.00" shape="417.697165,1348.429641 411.149942,1352.208100 419.716961,1367.048422 426.264176,1363.269970 417.697165,1348.429641"/>
    <poly id="277881282" type="building.apartments" color="255,230,230" fill="1" layer="-1.00" shape="391.259728,1318.233171 371.589443,1329.856967 382.174569,1347.773096 401.853271,1336.149423 401.612839,1335.747033 391.259728,1318.233171"/>
    <poly id="277881283" type="building.yes" color="255,230,230" fill="1" layer="-1.00" shape="325.777267,1282.078393 319.322946,1285.857981 329.135396,1302.644001 335.598155,1298.864517 325.777267,1282.078393"/>