<?xml version="1.0" encoding="UTF-8"?>

<!-- generated on Tue Sep 10 14:53:58 2019 by Eclipse SUMO netconvert Version 1.2.0
<configuration xmlns:xsi="http://www.w3.org/2001/XMLSchema-instance" xsi:noNamespaceSchemaLocation="http://sumo.dlr.de/xsd/netconvertConfiguration.xsd">

    <input>
        <type-files value="/usr/share/sumo/data/typemap/osmNetconvert.typ.xml"/>
        <osm-files value="osm_bbox.osm.xml"/>
    </input>

    <output>
        <output-file value="osm.net.xml"/>
        <output.street-names value="true"/>
        <output.original-names value="true"/>
    </output>

    <projection>
        <proj.utm value="true"/>
    </projection>

    <processing>
        <geometry.remove value="true"/>
        <roundabouts.guess value="true"/>
    </processing>

    <tls_building>
        <tls.discard-simple value="true"/>
        <tls.join value="true"/>
        <tls.guess-signals value="true"/>
        <tls.default-type value="actuated"/>
    </tls_building>

    <ramp_guessing>
        <ramps.guess value="true"/>
    </ramp_guessing>

    <junctions>
        <junctions.join value="true"/>
        <junctions.corner-detail value="5"/>
    </junctions>

    <report>
        <verbose value="true"/>
    </report>

</configuration>
-->

<net version="1.1" junctionCornerDetail="5" limitTurnSpeed="5.50" xmlns:xsi="http://www.w3.org/2001/XMLSchema-instance" xsi:noNamespaceSchemaLocation="http://sumo.dlr.de/xsd/net_file.xsd">

    <location netOffset="-583216.92,-4505101.93" convBoundary="0.00,0.00,3834.48,7705.53" origBoundary="-74.014906,40.692395,-73.968640,40.761626" projParameter="+proj=utm +zone=18 +ellps=WGS84 +datum=WGS84 +units=m +no_defs"/>

    <type id="highway.bridleway" priority="1" numLanes="1" speed="2.78" allow="pedestrian" oneway="1" width="2.00"/>
    <type id="highway.bus_guideway" priority="1" numLanes="1" speed="27.78" allow="bus" oneway="1"/>
    <type id="highway.cycleway" priority="1" numLanes="1" speed="8.33" allow="bicycle" oneway="0" width="1.00"/>
    <type id="highway.footway" priority="1" numLanes="1" speed="2.78" allow="pedestrian" oneway="1" width="2.00"/>
    <type id="highway.ford" priority="1" numLanes="1" speed="2.78" allow="army" oneway="0"/>
    <type id="highway.living_street" priority="2" numLanes="1" speed="2.78" disallow="tram rail_urban rail rail_electric ship" oneway="0"/>
    <type id="highway.motorway" priority="14" numLanes="2" speed="39.44" allow="private emergency authority army vip passenger hov taxi bus coach delivery truck trailer motorcycle evehicle custom1 custom2" oneway="1"/>
    <type id="highway.motorway_link" priority="9" numLanes="1" speed="22.22" allow="private emergency authority army vip passenger hov taxi bus coach delivery truck trailer motorcycle evehicle custom1 custom2" oneway="1"/>
    <type id="highway.path" priority="1" numLanes="1" speed="2.78" allow="bicycle pedestrian" oneway="1" width="2.00"/>
    <type id="highway.pedestrian" priority="1" numLanes="1" speed="2.78" allow="pedestrian" oneway="1" width="2.00"/>
    <type id="highway.primary" priority="12" numLanes="2" speed="27.78" disallow="tram rail_urban rail rail_electric ship" oneway="0"/>
    <type id="highway.primary_link" priority="7" numLanes="1" speed="22.22" disallow="tram rail_urban rail rail_electric ship" oneway="0"/>
    <type id="highway.raceway" priority="15" numLanes="2" speed="83.33" allow="vip" oneway="0"/>
    <type id="highway.residential" priority="3" numLanes="1" speed="13.89" disallow="tram rail_urban rail rail_electric ship" oneway="0"/>
    <type id="highway.secondary" priority="11" numLanes="2" speed="27.78" disallow="tram rail_urban rail rail_electric ship" oneway="0"/>
    <type id="highway.secondary_link" priority="6" numLanes="1" speed="22.22" disallow="tram rail_urban rail rail_electric ship" oneway="0"/>
    <type id="highway.service" priority="1" numLanes="1" speed="5.56" allow="delivery bicycle pedestrian" oneway="0"/>
    <type id="highway.stairs" priority="1" numLanes="1" speed="1.39" allow="pedestrian" oneway="1" width="2.00"/>
    <type id="highway.step" priority="1" numLanes="1" speed="1.39" allow="pedestrian" oneway="1" width="2.00"/>
    <type id="highway.steps" priority="1" numLanes="1" speed="1.39" allow="pedestrian" oneway="1" width="2.00"/>
    <type id="highway.steps|railway.subway" priority="18" numLanes="1" speed="27.78" allow="rail_urban pedestrian" oneway="0" width="3.20"/>
    <type id="highway.tertiary" priority="10" numLanes="1" speed="22.22" disallow="tram rail_urban rail rail_electric ship" oneway="0"/>
    <type id="highway.tertiary_link" priority="5" numLanes="1" speed="22.22" disallow="tram rail_urban rail rail_electric ship" oneway="0"/>
    <type id="highway.track" priority="1" numLanes="1" speed="5.56" disallow="tram rail_urban rail rail_electric ship" oneway="0"/>
    <type id="highway.trunk" priority="13" numLanes="2" speed="27.78" disallow="tram rail_urban rail rail_electric bicycle pedestrian ship" oneway="0"/>
    <type id="highway.trunk_link" priority="8" numLanes="1" speed="22.22" disallow="tram rail_urban rail rail_electric bicycle pedestrian ship" oneway="0"/>
    <type id="highway.unclassified" priority="4" numLanes="1" speed="13.89" disallow="tram rail_urban rail rail_electric ship" oneway="0"/>
    <type id="highway.unsurfaced" priority="1" numLanes="1" speed="8.33" disallow="tram rail_urban rail rail_electric ship" oneway="0"/>
    <type id="railway.light_rail" priority="19" numLanes="1" speed="27.78" allow="rail_urban" oneway="1"/>
    <type id="railway.preserved" priority="16" numLanes="1" speed="27.78" allow="rail" oneway="1"/>
    <type id="railway.rail" priority="20" numLanes="1" speed="83.33" allow="rail rail_electric" oneway="1"/>
    <type id="railway.subway" priority="18" numLanes="1" speed="27.78" allow="rail_urban" oneway="1"/>
    <type id="railway.tram" priority="17" numLanes="1" speed="13.89" allow="tram" oneway="1"/>

    <edge id=":1253070923_0" function="internal">
        <lane id=":1253070923_0_0" index="0" allow="delivery bicycle pedestrian" speed="11.18" length="6.72" shape="883.40,2466.95 877.59,2470.33"/>
    </edge>
    <edge id=":1253070923_1" function="internal">
        <lane id=":1253070923_1_0" index="0" allow="delivery bicycle pedestrian" speed="3.65" length="2.34" shape="883.40,2466.95 881.96,2466.87 881.21,2466.38"/>
    </edge>
    <edge id=":1253070923_4" function="internal">
        <lane id=":1253070923_4_0" index="0" allow="delivery bicycle pedestrian" speed="3.65" length="2.34" shape="881.21,2466.38 881.15,2465.49 881.77,2464.19"/>
    </edge>
    <edge id=":1253070923_2" function="internal">
        <lane id=":1253070923_2_0" index="0" allow="delivery bicycle pedestrian" speed="11.18" length="6.69" shape="875.99,2467.56 881.77,2464.19"/>
    </edge>
    <edge id=":1253070923_3" function="internal">
        <lane id=":1253070923_3_0" index="0" allow="delivery bicycle pedestrian" speed="3.65" length="2.34" shape="875.99,2467.56 877.43,2467.66 878.18,2468.15"/>
    </edge>
    <edge id=":1253070923_5" function="internal">
        <lane id=":1253070923_5_0" index="0" allow="delivery bicycle pedestrian" speed="3.65" length="2.34" shape="878.18,2468.15 878.23,2469.04 877.59,2470.33"/>
    </edge>
    <edge id=":1272562861_0" function="internal">
        <lane id=":1272562861_0_0" index="0" disallow="tram rail_urban rail rail_electric ship" speed="13.41" length="8.04" shape="874.53,2231.36 875.27,2233.49 875.83,2234.95 876.57,2236.30 877.85,2238.15"/>
        <lane id=":1272562861_0_1" index="1" disallow="tram rail_urban rail rail_electric ship" speed="13.41" length="8.04" shape="871.53,2232.48 872.36,2234.86 872.99,2236.47 873.83,2237.98 875.26,2240.04"/>
    </edge>
    <edge id=":1272562861_2" function="internal">
        <lane id=":1272562861_2_0" index="0" disallow="tram rail_urban rail rail_electric ship" speed="10.87" length="8.78" shape="869.45,2233.83 871.23,2235.68 872.81,2236.60 874.39,2237.53 876.15,2239.39"/>
    </edge>
    <edge id=":1272562861_3" function="internal">
        <lane id=":1272562861_3_0" index="0" allow="bicycle" speed="2.19" length="1.78" width="1.00" shape="869.45,2233.83 869.79,2234.27 869.84,2234.60 869.60,2234.85 869.07,2234.99"/>
    </edge>
    <edge id=":1272562922_0" function="internal">
        <lane id=":1272562922_0_0" index="0" allow="bicycle" speed="2.04" length="1.46" width="1.00" shape="875.44,2173.82 875.84,2173.62 876.12,2173.63 876.28,2173.86 876.32,2174.31"/>
    </edge>
    <edge id=":1431790464_0" function="internal">
        <lane id=":1431790464_0_0" index="0" disallow="tram rail_urban rail rail_electric ship" speed="3.65" length="4.67" shape="237.37,2163.54 237.88,2162.19 238.56,2161.62 239.43,2161.83 240.49,2162.81"/>
    </edge>
    <edge id=":1692394900_0" function="internal">
        <lane id=":1692394900_0_0" index="0" allow="rail_urban" speed="27.78" length="25.80" shape="555.79,2456.27 568.88,2478.50"/>
    </edge>
    <edge id=":2052618395_0" function="internal">
        <lane id=":2052618395_0_0" index="0" allow="rail_urban" speed="27.78" length="5.06" shape="482.36,2290.41 477.93,2292.86"/>
    </edge>
    <edge id=":2054217376_0" function="internal">
        <lane id=":2054217376_0_0" index="0" allow="rail_urban" speed="27.78" length="3.00" shape="326.96,2021.61 325.63,2018.92"/>
    </edge>
    <edge id=":272194254_0" function="internal">
        <lane id=":272194254_0_0" index="0" disallow="tram rail_urban rail rail_electric ship" speed="11.18" length="15.57" shape="273.87,2330.36 260.44,2338.24"/>
    </edge>
    <edge id=":272194254_1" function="internal">
        <lane id=":272194254_1_0" index="0" disallow="tram rail_urban rail rail_electric ship" speed="6.76" length="12.51" shape="273.87,2330.36 270.13,2332.07 267.27,2332.23 265.28,2330.86 264.18,2327.95"/>
    </edge>
    <edge id=":272194254_2" function="internal">
        <lane id=":272194254_2_0" index="0" disallow="tram rail_urban rail rail_electric ship" speed="9.10" length="13.73" shape="267.33,2327.38 267.32,2330.38 266.17,2333.20 263.87,2335.82 260.44,2338.24"/>
    </edge>
    <edge id=":272194254_3" function="internal">
        <lane id=":272194254_3_0" index="0" disallow="tram rail_urban rail rail_electric ship" speed="3.65" length="4.67" shape="267.33,2327.38 266.75,2328.70 266.04,2329.24 265.18,2328.99 264.18,2327.95"/>
    </edge>
    <edge id=":272194254_4" function="internal">
        <lane id=":272194254_4_0" index="0" disallow="tram rail_urban rail rail_electric ship" speed="5.50" length="9.58" shape="265.47,2341.86 265.72,2338.85 264.97,2337.24 263.21,2337.04 260.44,2338.24"/>
    </edge>
    <edge id=":272194254_5" function="internal">
        <lane id=":272194254_5_0" index="0" disallow="tram rail_urban rail rail_electric ship" speed="11.18" length="14.07" shape="265.47,2341.86 265.81,2338.31 265.53,2334.91 264.90,2331.51 264.18,2327.95"/>
    </edge>
    <edge id=":272195271_0" function="internal">
        <lane id=":272195271_0_0" index="0" disallow="tram rail_urban rail rail_electric ship" speed="6.57" length="9.13" shape="716.09,2409.09 714.49,2407.14 712.67,2406.15 710.61,2406.13 708.32,2407.07"/>
    </edge>
    <edge id=":272195271_1" function="internal">
        <lane id=":272195271_1_0" index="0" disallow="tram rail_urban rail rail_electric ship" speed="11.18" length="14.60" shape="716.09,2409.09 714.06,2405.28 713.01,2402.48 711.97,2399.69 709.97,2395.86"/>
        <lane id=":272195271_1_1" index="1" disallow="tram rail_urban rail rail_electric ship" speed="11.18" length="14.60" shape="718.82,2407.42 716.80,2403.62 715.75,2400.83 714.71,2398.04 712.71,2394.21"/>
    </edge>
    <edge id=":272195271_3" function="internal">
        <lane id=":272195271_3_0" index="0" disallow="tram rail_urban rail rail_electric ship" speed="7.30" length="11.75" shape="721.56,2405.76 719.85,2402.28 719.33,2399.39 719.99,2397.08 721.83,2395.34"/>
    </edge>
    <edge id=":272195271_4" function="internal">
        <lane id=":272195271_4_0" index="0" disallow="tram rail_urban rail rail_electric ship" speed="11.18" length="17.60" shape="723.47,2398.09 708.32,2407.07"/>
    </edge>
    <edge id=":272195271_5" function="internal">
        <lane id=":272195271_5_0" index="0" disallow="tram rail_urban rail rail_electric ship" speed="7.69" length="5.00" shape="723.47,2398.09 720.46,2399.24 718.69,2399.07"/>
    </edge>
    <edge id=":272195271_6" function="internal">
        <lane id=":272195271_6_0" index="0" disallow="tram rail_urban rail rail_electric ship" speed="3.65" length="2.34" shape="723.47,2398.09 722.03,2398.02 721.27,2397.53"/>
    </edge>
    <edge id=":272195271_10" function="internal">
        <lane id=":272195271_10_0" index="0" disallow="tram rail_urban rail rail_electric ship" speed="7.69" length="7.99" shape="718.69,2399.07 717.67,2398.97 715.08,2397.29 712.71,2394.21"/>
    </edge>
    <edge id=":272195271_11" function="internal">
        <lane id=":272195271_11_0" index="0" disallow="tram rail_urban rail rail_electric ship" speed="3.65" length="2.34" shape="721.27,2397.53 721.21,2396.64 721.83,2395.34"/>
    </edge>
    <edge id=":272195271_7" function="internal">
        <lane id=":272195271_7_0" index="0" disallow="tram rail_urban rail rail_electric ship" speed="6.89" length="10.30" shape="706.69,2404.31 709.21,2402.42 710.59,2400.38 710.84,2398.19 709.97,2395.86"/>
    </edge>
    <edge id=":272195271_8" function="internal">
        <lane id=":272195271_8_0" index="0" disallow="tram rail_urban rail rail_electric ship" speed="11.18" length="17.60" shape="706.69,2404.31 721.83,2395.34"/>
    </edge>
    <edge id=":272195271_9" function="internal">
        <lane id=":272195271_9_0" index="0" disallow="tram rail_urban rail rail_electric ship" speed="3.65" length="2.34" shape="706.69,2404.31 708.13,2404.39 708.89,2404.87"/>
    </edge>
    <edge id=":272195271_12" function="internal">
        <lane id=":272195271_12_0" index="0" disallow="tram rail_urban rail rail_electric ship" speed="3.65" length="2.34" shape="708.89,2404.87 708.95,2405.77 708.32,2407.07"/>
    </edge>
    <edge id=":2756599304_0" function="internal">
        <lane id=":2756599304_0_0" index="0" allow="rail_urban" speed="16.85" length="48.85" width="3.20" shape="586.99,2236.74 584.05,2237.79 576.07,2242.29 563.07,2250.23 545.04,2261.62"/>
    </edge>
    <edge id=":2756599304_1" function="internal">
        <lane id=":2756599304_1_0" index="0" allow="rail_urban" speed="17.39" length="52.06" width="3.20" shape="546.76,2264.32 565.86,2252.00 579.37,2242.99 587.29,2237.29 589.62,2234.91"/>
    </edge>
    <edge id=":2756599307_0" function="internal">
        <lane id=":2756599307_0_0" index="0" allow="rail_urban" speed="16.82" length="48.85" width="3.20" shape="595.43,2235.47 598.38,2234.43 606.36,2229.94 619.37,2222.01 637.41,2210.64"/>
    </edge>
    <edge id=":2756599307_1" function="internal">
        <lane id=":2756599307_1_0" index="0" allow="rail_urban" speed="17.36" length="52.07" width="3.20" shape="635.69,2207.94 616.58,2220.25 603.07,2229.26 595.16,2234.97 592.86,2237.39"/>
    </edge>
    <edge id=":2821304136_0" function="internal">
        <lane id=":2821304136_0_0" index="0" disallow="tram rail_urban rail rail_electric ship" speed="11.18" length="11.89" shape="679.32,2344.75 677.99,2341.56 677.77,2339.08 677.55,2336.60 676.20,2333.43"/>
        <lane id=":2821304136_0_1" index="1" disallow="tram rail_urban rail rail_electric ship" speed="11.18" length="11.89" shape="682.06,2343.10 680.73,2339.91 680.51,2337.42 680.29,2334.94 678.93,2331.76"/>
    </edge>
    <edge id=":2821304136_2" function="internal">
        <lane id=":2821304136_2_0" index="0" disallow="tram rail_urban rail rail_electric ship" speed="6.46" length="9.03" shape="668.81,2344.41 670.76,2342.87 671.73,2341.08 671.72,2339.05 670.74,2336.77"/>
    </edge>
    <edge id=":2821304136_3" function="internal">
        <lane id=":2821304136_3_0" index="0" disallow="tram rail_urban rail rail_electric ship" speed="7.28" length="11.76" shape="668.81,2344.41 671.97,2342.16 673.79,2339.86 674.29,2337.50 673.47,2335.10"/>
    </edge>
    <edge id=":2821304137_0" function="internal">
        <lane id=":2821304137_0_0" index="0" disallow="tram rail_urban rail rail_electric ship" speed="6.54" length="9.09" shape="638.26,2283.65 636.69,2281.75 634.87,2280.82 632.80,2280.85 630.49,2281.83"/>
    </edge>
    <edge id=":2821304137_1" function="internal">
        <lane id=":2821304137_1_0" index="0" disallow="tram rail_urban rail rail_electric ship" speed="11.18" length="15.97" shape="638.26,2283.65 629.81,2270.23"/>
        <lane id=":2821304137_1_1" index="1" disallow="tram rail_urban rail rail_electric ship" speed="11.18" length="15.97" shape="640.99,2281.98 632.50,2268.50"/>
        <lane id=":2821304137_1_2" index="2" disallow="tram rail_urban rail rail_electric ship" speed="11.18" length="15.97" shape="643.72,2280.31 635.19,2266.76"/>
        <lane id=":2821304137_1_3" index="3" disallow="tram rail_urban rail rail_electric ship" speed="11.18" length="15.97" shape="646.46,2278.64 637.88,2265.03"/>
    </edge>
    <edge id=":2821304137_5" function="internal">
        <lane id=":2821304137_5_0" index="0" allow="delivery bicycle pedestrian" speed="8.37" length="13.95" shape="646.46,2278.64 644.41,2274.60 643.52,2271.10 643.81,2268.13 645.26,2265.70"/>
    </edge>
    <edge id=":2821304137_6" function="internal">
        <lane id=":2821304137_6_0" index="0" disallow="tram rail_urban rail rail_electric ship" speed="8.37" length="21.89" shape="647.59,2267.89 644.42,2270.45 640.14,2272.93 634.90,2275.68 628.84,2279.09"/>
    </edge>
    <edge id=":2821304137_7" function="internal">
        <lane id=":2821304137_7_0" index="0" disallow="tram rail_urban rail rail_electric ship" speed="7.63" length="15.16" shape="647.59,2267.89 644.22,2270.58 641.03,2271.29 638.02,2270.01 635.19,2266.76"/>
    </edge>
    <edge id=":2821304137_8" function="internal">
        <lane id=":2821304137_8_0" index="0" disallow="tram rail_urban rail rail_electric ship" speed="6.90" length="12.18" shape="647.59,2267.89 645.24,2269.57 642.83,2269.65 640.38,2268.14 637.88,2265.03"/>
    </edge>
    <edge id=":2821304137_9" function="internal">
        <lane id=":2821304137_9_0" index="0" allow="delivery bicycle pedestrian" speed="3.65" length="4.67" shape="647.59,2267.89 646.19,2268.22 645.33,2267.96 645.02,2267.12 645.26,2265.70"/>
    </edge>
    <edge id=":3942249545_0" function="internal">
        <lane id=":3942249545_0_0" index="0" allow="delivery bicycle pedestrian" speed="3.65" length="4.67" shape="763.73,2185.81 765.11,2185.40 765.98,2185.60 766.34,2186.42 766.19,2187.86"/>
    </edge>
    <edge id=":4143765780_0" function="internal">
        <lane id=":4143765780_0_0" index="0" allow="delivery bicycle pedestrian" speed="3.65" length="4.67" shape="264.89,2246.03 264.67,2244.61 264.99,2243.77 265.85,2243.53 267.25,2243.87"/>
    </edge>
    <edge id=":4143765783_0" function="internal">
        <lane id=":4143765783_0_0" index="0" disallow="tram rail_urban rail rail_electric ship" speed="3.65" length="4.67" shape="253.24,2267.72 253.81,2266.39 254.53,2265.86 255.39,2266.11 256.39,2267.14"/>
    </edge>
    <edge id=":4207150077_0" function="internal">
        <lane id=":4207150077_0_0" index="0" disallow="tram rail_urban rail rail_electric ship" speed="11.18" length="8.21" shape="739.94,2445.12 738.48,2443.20 737.17,2442.12 735.87,2441.04 734.41,2439.12"/>
        <lane id=":4207150077_0_1" index="1" disallow="tram rail_urban rail rail_electric ship" speed="11.18" length="8.21" shape="739.94,2445.12 738.90,2442.94 738.54,2441.28 738.17,2439.63 737.14,2437.45"/>
        <lane id=":4207150077_0_2" index="2" disallow="tram rail_urban rail rail_electric ship" speed="11.18" length="8.21" shape="742.67,2443.45 741.64,2441.27 741.27,2439.62 740.91,2437.96 739.87,2435.79"/>
    </edge>
    <edge id=":42427278_0" function="internal">
        <lane id=":42427278_0_0" index="0" disallow="tram rail_urban rail rail_electric ship" speed="7.83" length="13.87" shape="944.27,2340.35 944.38,2342.03 942.88,2344.15 939.78,2346.70 935.08,2349.70"/>
    </edge>
    <edge id=":42427278_1" function="internal">
        <lane id=":42427278_1_0" index="0" disallow="tram rail_urban rail rail_electric ship" speed="3.65" length="4.67" shape="941.56,2342.05 941.51,2343.49 941.05,2344.25 940.16,2344.34 938.84,2343.74"/>
    </edge>
    <edge id=":42428402_0" function="internal">
        <lane id=":42428402_0_0" index="0" disallow="tram rail_urban rail rail_electric ship" speed="6.58" length="9.06" shape="751.28,2463.58 749.68,2461.67 747.85,2460.70 745.81,2460.68 743.54,2461.59"/>
    </edge>
    <edge id=":42428402_1" function="internal">
        <lane id=":42428402_1_0" index="0" disallow="tram rail_urban rail rail_electric ship" speed="11.18" length="11.12" shape="751.28,2463.58 745.43,2454.10"/>
        <lane id=":42428402_1_1" index="1" disallow="tram rail_urban rail rail_electric ship" speed="11.18" length="11.12" shape="753.99,2461.89 748.16,2452.44"/>
    </edge>
    <edge id=":42428402_3" function="internal">
        <lane id=":42428402_3_0" index="0" disallow="tram rail_urban rail rail_electric ship" speed="11.18" length="14.25" shape="755.84,2454.41 743.54,2461.59"/>
    </edge>
    <edge id=":42428402_4" function="internal">
        <lane id=":42428402_4_0" index="0" disallow="tram rail_urban rail rail_electric ship" speed="6.54" length="9.01" shape="755.84,2454.41 753.57,2455.33 751.53,2455.31 749.73,2454.35 748.16,2452.44"/>
    </edge>
    <edge id=":42428405_0" function="internal">
        <lane id=":42428405_0_0" index="0" disallow="tram rail_urban rail rail_electric ship" speed="11.18" length="14.42" shape="790.93,2527.09 783.28,2514.87"/>
        <lane id=":42428405_0_1" index="1" disallow="tram rail_urban rail rail_electric ship" speed="11.18" length="14.42" shape="793.64,2525.39 785.99,2513.18"/>
    </edge>
    <edge id=":42428405_2" function="internal">
        <lane id=":42428405_2_0" index="0" disallow="tram rail_urban rail rail_electric ship" speed="7.45" length="11.84" shape="795.54,2517.77 793.10,2518.54 790.69,2518.04 788.32,2516.25 785.99,2513.18"/>
    </edge>
    <edge id=":42428405_3" function="internal">
        <lane id=":42428405_3_0" index="0" allow="delivery bicycle pedestrian" speed="3.65" length="4.67" shape="795.54,2517.77 794.10,2517.67 793.35,2517.18 793.30,2516.29 793.94,2515.00"/>
    </edge>
    <edge id=":42428405_4" function="internal">
        <lane id=":42428405_4_0" index="0" disallow="tram rail_urban rail rail_electric ship" speed="6.82" length="10.20" shape="782.16,2523.73 784.05,2522.10 784.87,2520.08 784.61,2517.67 783.28,2514.87"/>
    </edge>
    <edge id=":42428405_5" function="internal">
        <lane id=":42428405_5_0" index="0" allow="delivery bicycle pedestrian" speed="11.18" length="14.67" shape="782.16,2523.73 785.21,2521.64 788.04,2519.34 790.88,2517.05 793.94,2515.00"/>
    </edge>
    <edge id=":42428408_0" function="internal">
        <lane id=":42428408_0_0" index="0" disallow="tram rail_urban rail rail_electric ship" speed="6.54" length="8.91" shape="826.73,2584.03 825.17,2582.20 823.38,2581.29 821.34,2581.30 819.07,2582.23"/>
    </edge>
    <edge id=":42428408_1" function="internal">
        <lane id=":42428408_1_0" index="0" disallow="tram rail_urban rail rail_electric ship" speed="11.18" length="10.96" shape="826.73,2584.03 820.90,2574.76"/>
        <lane id=":42428408_1_1" index="1" disallow="tram rail_urban rail rail_electric ship" speed="11.18" length="10.96" shape="829.44,2582.33 823.61,2573.05"/>
    </edge>
    <edge id=":42429562_0" function="internal">
        <lane id=":42429562_0_0" index="0" disallow="tram rail_urban rail rail_electric ship" speed="6.54" length="9.06" shape="507.80,2355.62 505.86,2357.20 504.87,2359.01 504.84,2361.05 505.77,2363.32"/>
    </edge>
    <edge id=":42429562_1" function="internal">
        <lane id=":42429562_1_0" index="0" disallow="tram rail_urban rail rail_electric ship" speed="11.18" length="14.37" shape="507.80,2355.62 495.39,2362.94"/>
        <lane id=":42429562_1_1" index="1" disallow="tram rail_urban rail rail_electric ship" speed="11.18" length="14.37" shape="506.15,2352.88 493.79,2360.16"/>
    </edge>
    <edge id=":42429562_3" function="internal">
        <lane id=":42429562_3_0" index="0" disallow="tram rail_urban rail rail_electric ship" speed="11.18" length="14.37" shape="498.59,2350.90 505.77,2363.32"/>
        <lane id=":42429562_3_1" index="1" disallow="tram rail_urban rail rail_electric ship" speed="11.18" length="14.37" shape="495.81,2352.48 503.01,2364.94"/>
    </edge>
    <edge id=":42429562_5" function="internal">
        <lane id=":42429562_5_0" index="0" disallow="tram rail_urban rail rail_electric ship" speed="6.52" length="9.04" shape="495.81,2352.48 496.73,2354.80 496.70,2356.86 495.72,2358.64 493.79,2360.16"/>
    </edge>
    <edge id=":42429563_0" function="internal">
        <lane id=":42429563_0_0" index="0" disallow="tram rail_urban rail rail_electric ship" speed="6.53" length="9.01" shape="394.06,2427.86 392.52,2425.92 390.73,2424.92 388.70,2424.88 386.42,2425.78"/>
    </edge>
    <edge id=":42429563_1" function="internal">
        <lane id=":42429563_1_0" index="0" disallow="tram rail_urban rail rail_electric ship" speed="11.18" length="14.51" shape="396.82,2426.23 394.26,2422.40 392.02,2419.73 389.98,2417.44 388.02,2414.72"/>
    </edge>
    <edge id=":42429563_2" function="internal">
        <lane id=":42429563_2_0" index="0" disallow="tram rail_urban rail rail_electric ship" speed="11.18" length="14.29" shape="398.81,2418.65 386.42,2425.78"/>
        <lane id=":42429563_2_1" index="1" disallow="tram rail_urban rail rail_electric ship" speed="11.18" length="14.29" shape="397.21,2415.88 384.83,2423.00"/>
    </edge>
    <edge id=":42429563_4" function="internal">
        <lane id=":42429563_4_0" index="0" disallow="tram rail_urban rail rail_electric ship" speed="7.02" length="10.46" shape="397.21,2415.88 394.29,2417.16 391.79,2417.40 389.69,2416.58 388.02,2414.72"/>
    </edge>
    <edge id=":42429565_0" function="internal">
        <lane id=":42429565_0_0" index="0" disallow="tram rail_urban rail rail_electric ship" speed="6.58" length="9.17" shape="292.25,2487.23 291.04,2485.08 289.41,2483.82 287.35,2483.46 284.86,2484.00"/>
    </edge>
    <edge id=":42429565_1" function="internal">
        <lane id=":42429565_1_0" index="0" disallow="tram rail_urban rail rail_electric ship" speed="11.18" length="20.80" shape="292.25,2487.23 284.93,2467.77"/>
    </edge>
    <edge id=":42429565_2" function="internal">
        <lane id=":42429565_2_0" index="0" disallow="tram rail_urban rail rail_electric ship" speed="11.18" length="11.91" shape="294.39,2477.09 291.35,2478.74 289.63,2480.55 287.91,2482.35 284.86,2484.00"/>
        <lane id=":42429565_2_1" index="1" disallow="tram rail_urban rail rail_electric ship" speed="11.18" length="11.91" shape="293.28,2474.08 290.24,2475.74 288.52,2477.54 286.80,2479.35 283.76,2481.00"/>
    </edge>
    <edge id=":42429565_4" function="internal">
        <lane id=":42429565_4_0" index="0" disallow="tram rail_urban rail rail_electric ship" speed="7.24" length="7.75" shape="293.28,2474.08 290.56,2474.50 288.26,2473.59 286.64,2471.65"/>
    </edge>
    <edge id=":42429565_7" function="internal">
        <lane id=":42429565_7_0" index="0" disallow="tram rail_urban rail rail_electric ship" speed="7.24" length="4.27" shape="286.64,2471.65 286.38,2471.34 284.93,2467.77"/>
    </edge>
    <edge id=":42429565_5" function="internal">
        <lane id=":42429565_5_0" index="0" disallow="tram rail_urban rail rail_electric ship" speed="6.64" length="8.97" shape="281.55,2475.00 283.62,2473.86 284.87,2472.27 285.31,2470.24 284.93,2467.77"/>
    </edge>
    <edge id=":42429565_6" function="internal">
        <lane id=":42429565_6_0" index="0" disallow="tram rail_urban rail rail_electric ship" speed="3.65" length="2.08" shape="282.65,2478.00 284.06,2478.33 284.52,2478.77"/>
    </edge>
    <edge id=":42429565_8" function="internal">
        <lane id=":42429565_8_0" index="0" disallow="tram rail_urban rail rail_electric ship" speed="3.65" length="2.60" shape="284.52,2478.77 284.71,2478.95 284.61,2479.84 283.76,2481.00"/>
    </edge>
    <edge id=":42429570_0" function="internal">
        <lane id=":42429570_0_0" index="0" disallow="tram rail_urban rail rail_electric ship" speed="3.65" length="4.67" shape="130.58,2512.69 129.23,2512.17 128.66,2511.48 128.88,2510.61 129.87,2509.57"/>
    </edge>
    <edge id=":42429829_0" function="internal">
        <lane id=":42429829_0_0" index="0" disallow="tram rail_urban rail rail_electric ship" speed="11.18" length="11.20" shape="728.98,2634.94 719.32,2640.59"/>
    </edge>
    <edge id=":42429829_1" function="internal">
        <lane id=":42429829_1_0" index="0" disallow="tram rail_urban rail rail_electric ship" speed="6.49" length="9.03" shape="721.29,2632.94 722.24,2635.22 722.23,2637.26 721.26,2639.05 719.32,2640.59"/>
    </edge>
    <edge id=":42429830_0" function="internal">
        <lane id=":42429830_0_0" index="0" disallow="tram rail_urban rail rail_electric ship" speed="6.50" length="9.03" shape="686.35,2659.88 684.41,2661.42 683.43,2663.21 683.41,2665.25 684.35,2667.54"/>
    </edge>
    <edge id=":42429830_1" function="internal">
        <lane id=":42429830_1_0" index="0" disallow="tram rail_urban rail rail_electric ship" speed="11.18" length="14.40" shape="686.35,2659.88 673.92,2667.15"/>
    </edge>
    <edge id=":42429830_2" function="internal">
        <lane id=":42429830_2_0" index="0" disallow="tram rail_urban rail rail_electric ship" speed="11.18" length="11.21" shape="678.69,2657.87 684.35,2667.54"/>
        <lane id=":42429830_2_1" index="1" disallow="tram rail_urban rail rail_electric ship" speed="11.18" length="11.21" shape="675.93,2659.48 681.59,2669.16"/>