<?xml version="1.0" encoding="UTF-8"?>

<!-- generated on Tue Sep 10 14:53:58 2019 by Eclipse SUMO polyconvert Version 1.2.0
<configuration xmlns:xsi="http://www.w3.org/2001/XMLSchema-instance" xsi:noNamespaceSchemaLocation="http://sumo.dlr.de/xsd/polyconvertConfiguration.xsd">

    <input>
        <net-file value="osm.net.xml"/>
        <osm-files value="osm_bbox.osm.xml"/>
        <osm.keep-full-type value="true"/>
        <type-file value="/usr/share/sumo/data/typemap/osmPolyconvert.typ.xml"/>
    </input>

    <output>
        <output-file value="osm.poly.xml"/>
    </output>

    <processing>
        <poi-layer-offset value="5"/>
    </processing>

    <report>
        <verbose value="true"/>
    </report>

</configuration>
-->

<additional xmlns:xsi="http://www.w3.org/2001/XMLSchema-instance" xsi:noNamespaceSchemaLocation="http://sumo.dlr.de/xsd/additional_file.xsd">
    <location netOffset="-583216.92,-4505101.93" convBoundary="-0.00,0.00,3834.48,7705.53" origBoundary="-74.014906,40.692395,-73.968640,40.761626" projParameter="+proj=utm +zone=18 +ellps=WGS84 +datum=WGS84 +units=m +no_defs"/>

    <poly id="124814434" type="leisure.park" color="207,245,201" fill="1" layer="-2.00" shape="471.857871,2610.202855 461.897221,2616.296541 459.405881,2566.064907 469.597111,2564.248112 471.857871,2610.202855"/>
    <poly id="140391510" type="building.yes" color="255,230,230" fill="1" layer="-1.00" shape="177.713234,2407.119881 191.891935,2480.430694 200.968522,2478.578793 210.053686,2476.715897 219.121836,2474.863923 228.198563,2473.000954 237.275170,2471.149097 246.351906,2469.286150 255.428522,2467.434315 262.778062,2465.918322 245.803562,2374.612784 244.657164,2372.890171 242.498628,2371.777885 240.501110,2372.121781 237.875627,2373.468900 229.374467,2378.224867 220.881764,2382.980939 212.321250,2387.758461 203.794659,2392.525273 195.276525,2397.292189 186.758277,2402.070216 177.713234,2407.119881"/>
    <poly id="157880278" type="building.yes" color="255,230,230" fill="1" layer="-1.00" shape="827.603790,2400.676429 814.733968,2408.490824 813.995677,2407.294539 791.261483,2370.133767 804.735204,2361.959802 814.814985,2355.845708 823.108667,2350.799396 846.581055,2389.156554 836.986141,2394.976343 827.603790,2400.676429"/>
    <poly id="166839383" type="leisure.park" color="207,245,201" fill="1" layer="-2.00" shape="305.995756,2306.102231 274.870602,2323.692791 270.385199,2321.410800 257.580120,2252.189751 262.221389,2249.632993 306.413328,2301.277540 305.995756,2306.102231"/>
    <poly id="250269507" type="amenity.fire_station" color="237,199,199" fill="1" layer="-1.00" shape="726.276866,2517.644120 712.944432,2525.309123 725.329789,2546.842957 738.662199,2539.177976 730.477055,2524.952405 726.276866,2517.644120"/>
    <poly id="250269507#1" type="building.fire_station" color="255,230,230" fill="1" layer="-1.00" shape="726.276866,2517.644120 712.944432,2525.309123 725.329789,2546.842957 738.662199,2539.177976 730.477055,2524.952405 726.276866,2517.644120"/>
    <poly id="250269508" type="building.yes" color="255,230,230" fill="1" layer="-1.00" shape="712.944432,2525.309123 706.949888,2528.760660 719.335382,2550.283383 725.329789,2546.842957 712.944432,2525.309123"/>
    <poly id="250269509" type="building.yes" color="255,230,230" fill="1" layer="-1.00" shape="704.050276,2523.720822 696.916380,2527.825601 712.192930,2554.399153 719.335382,2550.283383 706.949888,2528.760660 704.050276,2523.720822"/>
    <poly id="250269511" type="building.yes" color="255,230,230" fill="1" layer="-1.00" shape="696.916380,2527.825601 683.694552,2535.425294 698.979579,2561.998914 712.192930,2554.399153 696.916380,2527.825601"/>
    <poly id="250269512" type="building.yes" color="255,230,230" fill="1" layer="-1.00" shape="662.931599,2545.049130 672.616268,2561.889466 679.219104,2573.365966 686.055441,2569.424336 669.784594,2541.129877 662.931599,2545.049130"/>
    <poly id="250269513" type="building.yes" color="255,230,230" fill="1" layer="-1.00" shape="662.252299,2543.864629 657.439626,2546.641240 656.296238,2544.663246 652.912102,2546.612255 654.047045,2548.590153 649.089912,2551.442850 666.056876,2580.933057 679.219104,2573.365966 672.616268,2561.889466 662.931599,2545.049130 662.252299,2543.864629"/>
    <poly id="250269514" type="building.yes" color="255,230,230" fill="1" layer="-1.00" shape="740.125518,2596.481240 729.589264,2602.656874 725.561470,2595.794621 720.476261,2598.767944 735.070248,2623.679619 750.700256,2614.519682 742.238756,2600.091128 740.125518,2596.481240"/>
    <poly id="250269515" type="building.yes" color="255,230,230" fill="1" layer="-1.00" shape="720.476261,2598.767944 711.224090,2604.192091 713.602598,2608.249055 725.818096,2629.103748 735.070248,2623.679619 720.476261,2598.767944"/>
    <poly id="250269516" type="building.yes" color="255,230,230" fill="1" layer="-1.00" shape="794.421474,2554.330762 776.394321,2564.795717 770.901131,2567.986429 776.444421,2577.530365 777.473345,2576.931402 799.964745,2563.874715 794.421474,2554.330762"/>
    <poly id="250269517" type="building.yes" color="255,230,230" fill="1" layer="-1.00" shape="799.964745,2563.874715 777.473345,2576.931402 783.455729,2587.235257 805.947110,2574.178588 799.964745,2563.874715"/>
    <poly id="250269518" type="building.yes" color="255,230,230" fill="1" layer="-1.00" shape="829.848870,2608.876901 821.933047,2596.252972 797.059002,2610.847998 805.405760,2624.209519 806.979645,2623.228159 829.848870,2608.876901"/>
    <poly id="250269520" type="building.yes" color="255,230,230" fill="1" layer="-1.00" shape="709.401792,2518.119308 722.045551,2510.846180 710.563078,2490.887962 697.919423,2498.150008 709.401792,2518.119308"/>
    <poly id="250269521" type="building.yes" color="255,230,230" fill="1" layer="-1.00" shape="697.919423,2498.150008 690.989477,2502.146081 702.099052,2521.467231 702.471984,2522.104268 709.401792,2518.119308 697.919423,2498.150008"/>
    <poly id="250269522" type="building.yes" color="255,230,230" fill="1" layer="-1.00" shape="690.989477,2502.146081 684.306369,2505.978420 694.686984,2524.025678 695.424276,2525.310757 702.099052,2521.467231 690.989477,2502.146081"/>
    <poly id="250269523" type="building.yes" color="255,230,230" fill="1" layer="-1.00" shape="684.306369,2505.978420 671.118428,2513.567417 674.970827,2520.261123 681.499188,2531.603556 694.686984,2524.025678 684.306369,2505.978420"/>
    <poly id="250269524" type="building.yes" color="255,230,230" fill="1" layer="-1.00" shape="658.202683,2520.992984 642.804043,2529.855977 651.875792,2545.623556 667.274286,2536.771682 658.202683,2520.992984"/>
    <poly id="250269526" type="building.yes" color="255,230,230" fill="1" layer="-1.00" shape="683.821281,2430.856327 678.021073,2434.298984 689.286719,2453.277711 690.928241,2456.027387 696.719992,2452.584644 692.409420,2445.319541 683.821281,2430.856327"/>
    <poly id="250269527" type="building.yes" color="255,230,230" fill="1" layer="-1.00" shape="678.021073,2434.298984 671.489448,2438.177457 682.755104,2457.156174 689.286719,2453.277711 678.021073,2434.298984"/>
    <poly id="250269528" type="building.yes" color="255,230,230" fill="1" layer="-1.00" shape="771.519104,2575.331898 765.464693,2578.849322 773.743497,2592.998282 777.305041,2599.255771 783.359442,2595.738357 779.697173,2589.424214 771.519104,2575.331898"/>
    <poly id="250269529" type="amenity.courthouse" color="237,199,199" fill="1" layer="-1.00" shape="912.240319,2501.288025 914.530626,2504.922176 915.825108,2506.979640 957.729094,2480.554663 952.177644,2471.743233 955.989384,2469.344025 957.214622,2468.569679 964.217108,2464.152796 955.196852,2449.850880 947.598821,2454.638487 953.117134,2463.394026 948.675691,2466.196868 937.722000,2448.819967 914.085596,2463.717311 895.818039,2475.233957 912.240319,2501.288025"/>
    <poly id="250269529#1" type="building.yes" color="255,230,230" fill="1" layer="-1.00" shape="912.240319,2501.288025 914.530626,2504.922176 915.825108,2506.979640 957.729094,2480.554663 952.177644,2471.743233 955.989384,2469.344025 957.214622,2468.569679 964.217108,2464.152796 955.196852,2449.850880 947.598821,2454.638487 953.117134,2463.394026 948.675691,2466.196868 937.722000,2448.819967 914.085596,2463.717311 895.818039,2475.233957 912.240319,2501.288025"/>
    <poly id="250269531" type="building.yes" color="255,230,230" fill="1" layer="-1.00" shape="635.982019,2513.847390 655.423622,2502.298983 646.172189,2486.729208 638.815672,2491.097976 631.761103,2479.216736 639.262221,2474.760779 631.842891,2462.264802 611.389193,2474.412449 618.949374,2487.154242 626.739538,2482.535008 633.595161,2494.080932 626.680886,2498.188261 635.982019,2513.847390"/>
    <poly id="250269532" type="building.yes" color="255,230,230" fill="1" layer="-1.00" shape="718.408406,2429.882027 701.586002,2439.872308 706.717328,2448.512257 697.311064,2454.101212 696.719992,2452.584644 690.928241,2456.027387 701.447825,2473.743162 701.936876,2474.570247 707.600916,2471.214886 707.239568,2470.300428 703.641853,2464.242405 729.649372,2448.793925 718.408406,2429.882027"/>
    <poly id="250269533" type="building.yes" color="255,230,230" fill="1" layer="-1.00" shape="751.137425,2552.763788 742.276975,2557.903678 741.781488,2559.885341 747.982187,2571.057598 743.612730,2573.483904 744.051593,2574.266017 743.362914,2574.657897 743.147580,2574.277989 737.188228,2577.607776 734.467927,2579.120178 733.516377,2578.854061 732.156038,2579.626914 731.937497,2581.023302 732.632921,2582.274604 733.391336,2582.438616 736.959983,2588.818288 736.446070,2590.189129 740.125518,2596.481240 742.238756,2600.091128 743.688512,2600.373987 747.262167,2606.309638 747.163603,2606.808115 747.875539,2608.092912 749.366268,2608.487257 750.214923,2608.141597 750.621576,2607.291340 759.149802,2602.391946 759.341250,2601.150681 773.743497,2592.998282 765.464693,2578.849322 761.847523,2572.280351 762.306769,2572.007999 751.137425,2552.763788"/>
    <poly id="250269535" type="building.yes" color="255,230,230" fill="1" layer="-1.00" shape="729.649372,2448.793925 703.641853,2464.242405 707.239568,2470.300428 733.246948,2454.863062 729.649372,2448.793925"/>
    <poly id="250269537" type="building.yes" color="255,230,230" fill="1" layer="-1.00" shape="599.119973,2480.690809 592.469302,2484.645719 616.634015,2525.341394 623.284664,2521.386506 599.119973,2480.690809"/>
    <poly id="250269539" type="building.yes" color="255,230,230" fill="1" layer="-1.00" shape="912.240319,2501.288025 900.770154,2508.596346 903.009408,2512.263220 914.530626,2504.922176 912.240319,2501.288025"/>
    <poly id="250269541" type="building.yes" color="255,230,230" fill="1" layer="-1.00" shape="651.886041,2449.823915 644.827120,2454.018410 668.784386,2494.367748 675.843284,2490.173276 651.886041,2449.823915"/>
    <poly id="250269542" type="building.yes" color="255,230,230" fill="1" layer="-1.00" shape="779.697173,2589.424214 783.359442,2595.738357 809.609239,2580.503845 805.947110,2574.178588 783.455729,2587.235257 779.697173,2589.424214"/>
    <poly id="250269546" type="building.yes" color="255,230,230" fill="1" layer="-1.00" shape="689.195486,2589.055010 662.708852,2604.342773 689.113282,2650.093278 715.599813,2634.805610 689.195486,2589.055010"/>
    <poly id="250269548" type="building.commercial" color="255,230,230" fill="1" layer="-1.00" shape="692.409420,2445.319541 701.586002,2439.872308 718.408406,2429.882027 709.828745,2415.418878 683.821281,2430.856327 692.409420,2445.319541"/>
    <poly id="250269549" type="building.yes" color="255,230,230" fill="1" layer="-1.00" shape="657.830820,2446.294056 651.886041,2449.823915 675.843284,2490.173276 681.788043,2486.643437 681.249191,2485.738075 657.830820,2446.294056"/>
    <poly id="250269551" type="building.yes" color="255,230,230" fill="1" layer="-1.00" shape="821.933047,2596.252972 817.676401,2589.465788 789.953835,2605.704984 790.791830,2607.046723 794.227138,2612.514544 797.059002,2610.847998 821.933047,2596.252972"/>
    <poly id="250269553" type="building.yes" color="255,230,230" fill="1" layer="-1.00" shape="647.888777,2549.342082 633.816629,2557.442944 651.984891,2589.022783 666.056876,2580.933057 649.089912,2551.442850 647.888777,2549.342082"/>
    <poly id="250269556" type="building.yes" color="255,230,230" fill="1" layer="-1.00" shape="652.497225,2546.696380 651.875792,2545.623556 642.804043,2529.855977 624.131992,2540.591559 633.816629,2557.442944 647.888777,2549.342082 652.497225,2546.696380"/>
    <poly id="250269563" type="building.yes" color="255,230,230" fill="1" layer="-1.00" shape="623.853963,2493.437932 622.731377,2494.102471 610.686211,2473.827198 599.119973,2480.690809 623.284664,2521.386506 635.982019,2513.847390 626.680886,2498.188261 623.853963,2493.437932"/>
    <poly id="250269565" type="building.yes" color="255,230,230" fill="1" layer="-1.00" shape="689.286719,2453.277711 682.755104,2457.156174 671.489448,2438.177457 657.830820,2446.294056 681.249191,2485.738075 701.447825,2473.743162 690.928241,2456.027387 689.286719,2453.277711"/>
    <poly id="250269566" type="building.yes" color="255,230,230" fill="1" layer="-1.00" shape="753.515804,2488.920479 743.690388,2471.834199 717.918132,2486.652472 718.067154,2486.920608 711.851588,2490.491763 719.258038,2503.365149 725.473597,2499.794000 725.912593,2500.565010 753.515804,2488.920479"/>
    <poly id="250269567" type="building.yes" color="255,230,230" fill="1" layer="-1.00" shape="840.297740,2533.634389 834.613898,2537.244774 850.997030,2563.031813 846.827731,2565.682370 851.392478,2572.861634 855.318169,2579.034472 859.300259,2576.503922 875.077455,2601.329375 880.948599,2597.587920 861.353645,2566.757366 840.297740,2533.634389"/>
    <poly id="250269571" type="building.yes" color="255,230,230" fill="1" layer="-1.00" shape="806.979645,2623.228159 816.754111,2638.815179 813.095793,2641.105173 816.738453,2646.908417 820.223394,2652.465630 839.434106,2640.415495 839.815969,2641.008232 847.124176,2636.428176 829.848870,2608.876901 806.979645,2623.228159"/>
    <poly id="250269572" type="building.yes" color="255,230,230" fill="1" layer="-1.00" shape="671.118428,2513.567417 658.202683,2520.992984 667.274286,2536.771682 669.784594,2541.129877 686.055441,2569.424336 698.979579,2561.998914 683.694552,2535.425294 681.499188,2531.603556 674.970827,2520.261123 671.118428,2513.567417"/>
    <poly id="250269574" type="building.yes" color="255,230,230" fill="1" layer="-1.00" shape="773.693085,2560.146669 776.394321,2564.795717 794.421474,2554.330762 782.829461,2534.371183 751.137425,2552.763788 762.306769,2572.007999 767.765916,2568.839099 765.487272,2564.916473 771.754237,2561.279333 773.693085,2560.146669"/>
    <poly id="250269575" type="building.yes" color="255,230,230" fill="1" layer="-1.00" shape="725.912593,2500.565010 725.149142,2503.831483 720.785620,2507.223750 730.851211,2524.734598 730.477055,2524.952405 738.662199,2539.177976 775.462618,2518.012126 756.181665,2486.996691 753.515804,2488.920479 725.912593,2500.565010"/>
    <poly id="277653273" type="amenity.parking" color="184,184,179" fill="1" layer="-1.00" shape="846.581055,2389.156554 866.024595,2378.241524 843.160157,2339.169557 823.108667,2350.799396 846.581055,2389.156554"/>
    <poly id="277881195" type="building.apartments" color="255,230,230" fill="1" layer="-1.00" shape="575.329942,2569.838100 549.166453,2584.952281 557.741951,2599.792667 583.896961,2584.678422 575.329942,2569.838100"/>
    <poly id="277881196" type="building.yes" color="255,230,230" fill="1" layer="-1.00" shape="528.098882,2549.754006 517.060526,2556.268434 518.055047,2557.967174 516.082077,2559.132825 526.667357,2577.037825 539.678788,2569.346665 534.705334,2560.930657 528.098882,2549.754006"/>
    <poly id="277881197" type="building.yes" color="255,230,230" fill="1" layer="-1.00" shape="549.166453,2584.952281 529.363295,2596.385855 538.212157,2611.706694 551.247000,2604.182351 550.965214,2603.701780 557.741951,2599.792667 549.166453,2584.952281"/>
    <poly id="277881198" type="building.yes" color="255,230,230" fill="1" layer="-1.00" shape="515.692490,2558.473405 508.914611,2562.482462 519.889489,2581.046871 526.667357,2577.037825 516.082077,2559.132825 515.692490,2558.473405"/>
    <poly id="277881199" type="building.yes" color="255,230,230" fill="1" layer="-1.00" shape="540.829013,2465.977220 534.221722,2469.832753 545.774525,2489.591641 552.381930,2485.725018 540.829013,2465.977220"/>
    <poly id="277881200" type="building.yes" color="255,230,230" fill="1" layer="-1.00" shape="529.363295,2596.385855 522.824572,2600.164455 531.872395,2615.820594 538.402663,2612.041907 538.212157,2611.706694 529.363295,2596.385855"/>
    <poly id="277881201" type="building.yes" color="255,230,230" fill="1" layer="-1.00" shape="555.304441,2505.952678 548.688104,2509.863605 559.803673,2528.685009 566.419999,2524.774091 555.304441,2505.952678"/>
    <poly id="277881202" type="building.yes" color="255,230,230" fill="1" layer="-1.00" shape="508.914611,2562.482462 502.366421,2566.349791 513.341309,2584.914190 519.889489,2581.046871 508.914611,2562.482462"/>
    <poly id="277881203" type="building.yes" color="255,230,230" fill="1" layer="-1.00" shape="534.031087,2469.508641 527.440821,2473.353270 539.192717,2493.436355 545.774525,2489.591641 534.221722,2469.832753 534.031087,2469.508641"/>
    <poly id="277881204" type="building.yes" color="255,230,230" fill="1" layer="-1.00" shape="527.440821,2473.353270 521.079996,2477.078372 532.823455,2497.161352 539.192717,2493.436355 527.440821,2473.353270"/>
    <poly id="277881205" type="building.yes" color="255,230,230" fill="1" layer="-1.00" shape="542.309903,2513.632901 528.949815,2521.519959 540.239656,2540.620851 540.803233,2541.581992 554.163299,2533.694956 542.309903,2513.632901"/>
    <poly id="277881206" type="building.yes" color="255,230,230" fill="1" layer="-1.00" shape="521.079996,2477.078372 514.302543,2481.043022 514.824647,2481.937080 526.054460,2501.126086 532.823455,2497.161352 521.079996,2477.078372"/>
    <poly id="277881207" type="building.yes" color="255,230,230" fill="1" layer="-1.00" shape="514.824647,2481.937080 508.183222,2485.825557 519.404600,2505.014457 526.054460,2501.126086 514.824647,2481.937080"/>
    <poly id="277881208" type="building.yes" color="255,230,230" fill="1" layer="-1.00" shape="515.955333,2529.200227 509.594184,2532.958641 519.972119,2550.528227 526.333258,2546.769822 515.955333,2529.200227"/>
    <poly id="277881209" type="building.yes" color="255,230,230" fill="1" layer="-1.00" shape="496.428487,2495.929000 489.957267,2499.708393 499.778155,2516.494517 506.240920,2512.715038 496.428487,2495.929000"/>
    <poly id="277881211" type="building.yes" color="255,230,230" fill="1" layer="-1.00" shape="606.625654,2578.995613 600.418540,2582.578057 615.762881,2609.152172 621.978427,2605.569837 606.625654,2578.995613"/>
    <poly id="277881213" type="building.yes" color="255,230,230" fill="1" layer="-1.00" shape="598.256057,2578.834430 588.222626,2584.627371 606.176923,2615.716188 616.210327,2609.923271 615.762881,2609.152172 600.418540,2582.578057 598.256057,2578.834430"/>
    <poly id="277881223" type="building.yes" color="255,230,230" fill="1" layer="-1.00" shape="588.222626,2584.627371 578.376159,2590.322519 596.330482,2621.411312 606.176923,2615.716188 588.222626,2584.627371"/>
    <poly id="277881225" type="building.yes" color="255,230,230" fill="1" layer="-1.00" shape="578.376159,2590.322519 567.764521,2596.453120 568.518595,2597.749477 585.718997,2627.530786 596.330482,2621.411312 578.376159,2590.322519"/>
    <poly id="277881227" type="building.yes" color="255,230,230" fill="1" layer="-1.00" shape="439.963781,2573.206292 433.433406,2576.996166 444.056580,2595.301146 450.586945,2591.511281 439.963781,2573.206292"/>
    <poly id="277881229" type="building.yes" color="255,230,230" fill="1" layer="-1.00" shape="568.518595,2597.749477 557.175702,2604.304814 574.376133,2634.086097 585.718997,2627.530786 568.518595,2597.749477"/>
    <poly id="277881231" type="building.yes" color="255,230,230" fill="1" layer="-1.00" shape="433.433406,2576.996166 426.052770,2581.276052 426.939382,2582.807031 435.350203,2597.290147 437.678559,2601.313147 445.059308,2597.022172 444.056580,2595.301146 433.433406,2576.996166"/>
    <poly id="277881234" type="building.yes" color="255,230,230" fill="1" layer="-1.00" shape="556.421752,2602.997357 545.801580,2609.138994 563.756114,2640.216607 574.376133,2634.086097 557.175702,2604.304814 556.421752,2602.997357"/>
    <poly id="277881237" type="building.yes" color="255,230,230" fill="1" layer="-1.00" shape="545.801580,2609.138994 537.145686,2614.137107 555.100117,2645.225800 563.756114,2640.216607 545.801580,2609.138994"/>
    <poly id="277881241" type="building.yes" color="255,230,230" fill="1" layer="-1.00" shape="406.827406,2592.427810 400.177941,2596.294085 411.198956,2615.280727 417.848285,2611.425562 414.782340,2606.139720 407.639380,2593.835823 406.827406,2592.427810"/>
    <poly id="277881243" type="building.yes" color="255,230,230" fill="1" layer="-1.00" shape="400.177941,2596.294085 393.469108,2600.181900 404.490009,2619.179633 411.198956,2615.280727 400.177941,2596.294085"/>
    <poly id="277881246" type="building.yes" color="255,230,230" fill="1" layer="-1.00" shape="396.185152,2620.773532 398.472291,2624.707238 405.376746,2620.699509 404.490009,2619.179633 393.469108,2600.181900 367.211701,2615.428876 379.152795,2635.980126 380.028518,2635.479300 385.011328,2632.582308 384.091553,2630.995449 385.545504,2630.156977 384.153298,2627.765445 396.185152,2620.773532"/>
    <poly id="277881257" type="building.yes" color="255,230,230" fill="1" layer="-1.00" shape="604.131840,2574.670933 606.625654,2578.995613 621.978427,2605.569837 628.814828,2601.617054 610.968259,2570.718134 604.131840,2574.670933"/>
    <poly id="277881268" type="building.yes" color="255,230,230" fill="1" layer="-1.00" shape="505.499154,2450.446295 498.721686,2454.410960 512.081486,2477.243251 518.858941,2473.278599 505.499154,2450.446295"/>
    <poly id="277881269" type="building.yes" color="255,230,230" fill="1" layer="-1.00" shape="498.721686,2454.410960 492.080246,2458.299450 505.440059,2481.131730 512.081486,2477.243251 498.721686,2454.410960"/>
    <poly id="277881270" type="building.yes" color="255,230,230" fill="1" layer="-1.00" shape="478.916515,2466.000080 472.453724,2469.779583 478.917997,2480.843553 481.255190,2484.833359 487.553763,2495.606815 494.024986,2491.827421 478.916515,2466.000080"/>
    <poly id="277881272" type="building.yes" color="255,230,230" fill="1" layer="-1.00" shape="481.255190,2484.833359 479.452265,2485.901019 477.115195,2481.900114 478.917997,2480.843553 472.453724,2469.779583 460.166032,2476.957228 471.321352,2496.023184 477.137930,2492.613860 481.099440,2499.386406 487.553763,2495.606815 481.255190,2484.833359"/>
    <poly id="277881279" type="building.yes" color="255,230,230" fill="1" layer="-1.00" shape="588.449986,2562.259272 581.877165,2566.059641 590.444176,2580.899970 590.941427,2581.749345 597.522685,2577.949080 588.449986,2562.259272"/>
    <poly id="277881280" type="building.yes" color="255,230,230" fill="1" layer="-1.00" shape="568.658032,2528.562969 562.041707,2532.473885 572.411450,2550.010148 579.019193,2546.110247 568.658032,2528.562969"/>
    <poly id="277881281" type="building.yes" color="255,230,230" fill="1" layer="-1.00" shape="581.877165,2566.059641 575.329942,2569.838100 583.896961,2584.678422 590.444176,2580.899970 581.877165,2566.059641"/>
    <poly id="277881282" type="building.apartments" color="255,230,230" fill="1" layer="-1.00" shape="555.439728,2535.863171 535.769443,2547.486967 546.354569,2565.403096 566.033271,2553.779423 565.792839,2553.377033 555.439728,2535.863171"/>
    <poly id="277881283" type="building.yes" color="255,230,230" fill="1" layer="-1.00" shape="489.957267,2499.708393 483.502946,2503.487981 493.315396,2520.274001 499.778155,2516.494517 489.957267,2499.708393"/>
    <poly id="277881285" type="building.yes" color="255,230,230" fill="1" layer="-1.00" shape="501.845805,2490.472410 497.602457,2492.955793 494.792970,2488.150202 499.036320,2485.666817 485.336829,2462.242307 478.916515,2466.000080 494.024986,2491.827421 496.428487,2495.929000 506.240920,2512.715038 512.661209,2508.957289 501.845805,2490.472410"/>
    <poly id="277881291" type="building.yes" color="255,230,230" fill="1" layer="-1.00" shape="528.949815,2521.519959 522.631136,2525.256636 533.912540,2544.357424 540.239656,2540.620851 528.949815,2521.519959"/>
    <poly id="277881292" type="building.yes" color="255,230,230" fill="1" layer="-1.00" shape="552.381930,2485.725018 558.708603,2482.032863 547.147375,2462.273859 540.829013,2465.977220 552.381930,2485.725018"/>
    <poly id="277881297" type="building.yes" color="255,230,230" fill="1" layer="-1.00" shape="438.820442,2601.181697 442.582468,2607.663321 441.825612,2608.109970 442.480228,2609.238661 438.237217,2611.699876 437.267524,2610.045835 433.313569,2612.343782 427.289247,2601.973136 435.350203,2597.290147 426.939382,2582.807031 423.980399,2584.516691 423.458291,2583.622639 409.963942,2591.452881 410.411410,2592.223968 407.639380,2593.835823 414.782340,2606.139720 417.902920,2604.331961 418.665215,2605.650599 421.675242,2603.908206 422.735847,2605.740903 423.169614,2605.479344 423.542439,2606.127468 426.280308,2604.548540 427.075760,2605.923063 425.519817,2606.815887 428.229447,2611.487103 429.904513,2610.517907 431.569930,2613.401019 425.396843,2616.972888 426.043265,2618.079281 422.803689,2619.952308 429.838798,2632.077372 436.904871,2627.971577 437.493042,2628.999600 453.291707,2619.829845 452.960240,2619.259902 453.905544,2618.582236 454.307154,2618.175990 454.976735,2617.228765 455.419518,2616.167961 455.601341,2615.026499 455.599406,2614.449170 456.165810,2614.411151 455.195103,2597.869229 453.774990,2597.953130 453.471272,2592.676224 451.821662,2593.634599 438.820442,2601.181697"/>
    <poly id="277881298" type="building.yes" color="255,230,230" fill="1" layer="-1.00" shape="501.587369,2565.019853 494.979685,2568.919822 506.742082,2588.814244 513.341309,2584.914190 502.366421,2566.349791 501.587369,2565.019853"/>
    <poly id="277881299" type="building.yes" color="255,230,230" fill="1" layer="-1.00" shape="522.824572,2600.164455 515.903264,2604.160784 525.398425,2620.599109 532.319723,2616.602789 531.872395,2615.820594 522.824572,2600.164455"/>
    <poly id="277881301" type="building.yes" color="255,230,230" fill="1" layer="-1.00" shape="460.166032,2476.957228 445.973334,2485.268023 457.758461,2505.417961 471.959456,2497.118385 471.321352,2496.023184 460.166032,2476.957228"/>
    <poly id="277881302" type="building.yes" color="255,230,230" fill="1" layer="-1.00" shape="579.019193,2546.110247 591.809622,2538.549905 568.086340,2498.403300 555.304441,2505.952678 566.419999,2524.774091 568.658032,2528.562969 579.019193,2546.110247"/>
    <poly id="277881308" type="building.yes" color="255,230,230" fill="1" layer="-1.00" shape="601.672041,2554.626109 588.449986,2562.259272 597.522685,2577.949080 597.754668,2578.351376 604.131840,2574.670933 610.968259,2570.718134 605.781676,2561.733462 601.672041,2554.626109"/>
    <poly id="277881309" type="building.yes" color="255,230,230" fill="1" layer="-1.00" shape="477.137930,2492.613860 471.321352,2496.023184 471.959456,2497.118385 457.758461,2505.417961 473.297868,2531.982859 493.315396,2520.274001 483.502946,2503.487981 481.099440,2499.386406 477.137930,2492.613860"/>
    <poly id="277881311" type="building.yes" color="255,230,230" fill="1" layer="-1.00" shape="454.212490,2592.118379 455.531122,2592.044436 454.198383,2569.403399 450.210018,2567.260124 439.963781,2573.206292 450.586945,2591.511281 451.821662,2593.634599 453.471272,2592.676224 454.212490,2592.118379"/>
    <poly id="277881312" type="building.yes" color="255,230,230" fill="1" layer="-1.00" shape="492.080246,2458.299450 485.336829,2462.242307 499.036320,2485.666817 501.845805,2490.472410 512.661209,2508.957289 519.404600,2505.014457 508.183222,2485.825557 505.440059,2481.131730 492.080246,2458.299450"/>
    <poly id="277881317" type="building.yes" color="255,230,230" fill="1" layer="-1.00" shape="548.688104,2509.863605 542.309903,2513.632901 554.163299,2533.694956 555.439728,2535.863171 565.792839,2553.377033 566.033271,2553.779423 572.411450,2550.010148 562.041707,2532.473885 559.803673,2528.685009 548.688104,2509.863605"/>
    <poly id="277881318" type="building.yes" color="255,230,230" fill="1" layer="-1.00" shape="522.631136,2525.256636 515.955333,2529.200227 526.333258,2546.769822 528.098882,2549.754006 534.705334,2560.930657 539.678788,2569.346665 546.354569,2565.403096 535.769443,2547.486967 533.912540,2544.357424 522.631136,2525.256636"/>
    <poly id="277881319" type="building.yes" color="255,230,230" fill="1" layer="-1.00" shape="540.630057,2465.641912 540.116276,2464.759048 546.442960,2461.066883 531.384528,2435.306610 505.499154,2450.446295 518.858941,2473.278599 521.079996,2477.078372 527.440821,2473.353270 534.031087,2469.508641 540.630057,2465.641912"/>
    <poly id="277881320" type="building.yes" color="255,230,230" fill="1" layer="-1.00" shape="508.371321,2547.000052 509.656708,2549.123952 501.780470,2553.897764 500.495081,2551.773865 508.371321,2547.000052"/>
    <poly id="277881321" type="building.yes" color="255,230,230" fill="1" layer="-1.00" shape="519.972119,2550.528227 509.594184,2532.958641 483.018518,2548.667912 494.979685,2568.919822 501.587369,2565.019853 502.497396,2564.475020 501.867498,2563.402113 514.275096,2556.070463 513.321804,2554.461005 519.972119,2550.528227"/>
    <poly id="277890473" type="building.yes" color="255,230,230" fill="1" layer="-1.00" shape="395.782419,2454.149277 385.508288,2436.325701 379.207757,2439.951684 389.349256,2457.551715 395.782419,2454.149277"/>