<?xml version="1.0" encoding="UTF-8"?>

<!-- generated on Tue Sep 10 14:53:59 2019 by Eclipse SUMO duarouter Version 1.2.0
<configuration xmlns:xsi="http://www.w3.org/2001/XMLSchema-instance" xsi:noNamespaceSchemaLocation="http://sumo.dlr.de/xsd/duarouterConfiguration.xsd">

    <input>
        <net-file value="/home/werer/sumo/tools/2019-09-10-14-53-54/osm.net.xml"/>
        <route-files value="/home/werer/sumo/tools/2019-09-10-14-53-54/osm.passenger.trips.xml"/>
    </input>

    <output>
        <output-file value="/home/werer/sumo/tools/2019-09-10-14-53-54/osm.passenger.trips.xml.tmp"/>
        <write-trips value="true"/>
    </output>

    <time>
        <begin value="0"/>
        <end value="3600.0"/>
    </time>

    <report>
        <no-warnings value="true"/>
        <ignore-errors value="true"/>
        <no-step-log value="true"/>
    </report>

</configuration>
-->

<routes xmlns:xsi="http://www.w3.org/2001/XMLSchema-instance" xsi:noNamespaceSchemaLocation="http://sumo.dlr.de/xsd/routes_file.xsd">
    <vType id="veh_passenger" vClass="passenger"/>
    <trip id="veh0" type="veh_passenger" depart="0.00" departLane="best" departSpeed="max" from="46116329#0" to="-413045905"/>
    <trip id="veh1" type="veh_passenger" depart="1.17" departLane="best" departSpeed="max" from="256902830#0" to="222299238#2"/>
    <trip id="veh2" type="veh_passenger" depart="2.35" departLane="best" departSpeed="max" from="5669938#0" to="413054286#3"/>
    <trip id="veh3" type="veh_passenger" depart="3.52" departLane="best" departSpeed="max" from="256902830#0" to="413045201#1"/>
    <trip id="veh4" type="veh_passenger" depart="4.70" departLane="best" departSpeed="max" from="46116329#0" to="413054286#3"/>
    <trip id="veh5" type="veh_passenger" depart="5.87" departLane="best" departSpeed="max" from="5672377#0" to="46165812"/>
    <trip id="veh6" type="veh_passenger" depart="7.04" departLane="best" departSpeed="max" from="32922453" to="196116978#2"/>
    <trip id="veh7" type="veh_passenger" depart="8.22" departLane="best" departSpeed="max" from="68668562#0" to="356140737#1"/>
    <trip id="veh8" type="veh_passenger" depart="9.39" departLane="best" departSpeed="max" from="-127690685" to="-600222727#0"/>
    <trip id="veh9" type="veh_passenger" depart="10.56" departLane="best" departSpeed="max" from="600222727#0" to="413054286#3"/>
    <trip id="veh10" type="veh_passenger" depart="11.74" departLane="best" departSpeed="max" from="5672377#0" to="46165812"/>
    <trip id="veh11" type="veh_passenger" depart="12.91" departLane="best" departSpeed="max" from="46116314#0" to="587038050#1"/>
    <trip id="veh12" type="veh_passenger" depart="14.09" departLane="best" departSpeed="max" from="32922453" to="413054286#3"/>
    <trip id="veh13" type="veh_passenger" depart="15.26" departLane="best" departSpeed="max" from="5672377#0" to="413054286#3"/>
    <trip id="veh14" type="veh_passenger" depart="16.43" departLane="best" departSpeed="max" from="600222727#0" to="413054286#3"/>
    <trip id="veh15" type="veh_passenger" depart="17.61" departLane="best" departSpeed="max" from="5669938#0" to="-413045905"/>
    <trip id="veh16" type="veh_passenger" depart="18.78" departLane="best" departSpeed="max" from="256902830#0" to="356140737#1"/>
    <trip id="veh18" type="veh_passenger" depart="21.13" departLane="best" departSpeed="max" from="-127690685" to="356140737#1"/>
    <trip id="veh19" type="veh_passenger" depart="22.30" departLane="best" departSpeed="max" from="32922453" to="222299238#2"/>
    <trip id="veh20" type="veh_passenger" depart="23.48" departLane="best" departSpeed="max" from="256902830#0" to="587038050#1"/>
    <trip id="veh21" type="veh_passenger" depart="24.65" departLane="best" departSpeed="max" from="46116329#0" to="413054286#3"/>
    <trip id="veh22" type="veh_passenger" depart="25.82" departLane="best" departSpeed="max" from="-46165812" to="356140737#1"/>
    <trip id="veh23" type="veh_passenger" depart="27.00" departLane="best" departSpeed="max" from="46116314#0" to="413054286#3"/>
    <trip id="veh24" type="veh_passenger" depart="28.17" departLane="best" from="5672803#1" to="46165812"/>
    <trip id="veh25" type="veh_passenger" depart="29.34" departLane="best" departSpeed="max" from="256902830#0" to="-413045905"/>
    <trip id="veh26" type="veh_passenger" depart="30.52" departLane="best" departSpeed="max" from="256902830#0" to="356140737#1"/>
    <trip id="veh27" type="veh_passenger" depart="31.69" departLane="best" departSpeed="max" from="46116329#0" to="413045201#1"/>
    <trip id="veh28" type="veh_passenger" depart="32.87" departLane="best" departSpeed="max" from="256902830#0" to="356140737#1"/>
    <trip id="veh29" type="veh_passenger" depart="34.04" departLane="best" departSpeed="max" from="46116314#0" to="5669866#6"/>
    <trip id="veh30" type="veh_passenger" depart="35.21" departLane="best" departSpeed="max" from="32922453" to="222299238#2"/>
    <trip id="veh31" type="veh_passenger" depart="36.39" departLane="best" departSpeed="max" from="-127690685" to="-413045905"/>
    <trip id="veh32" type="veh_passenger" depart="37.56" departLane="best" departSpeed="max" from="-46165812" to="413054286#3"/>
    <trip id="veh33" type="veh_passenger" depart="38.73" departLane="best" departSpeed="max" from="5672377#0" to="413045201#1"/>
    <trip id="veh34" type="veh_passenger" depart="39.91" departLane="best" departSpeed="max" from="-127690685" to="356140737#1"/>
    <trip id="veh35" type="veh_passenger" depart="41.08" departLane="best" from="46116329#2" to="413054286#1"/>
    <trip id="veh36" type="veh_passenger" depart="42.26" departLane="best" departSpeed="max" from="-46165812" to="413045201#1"/>
    <trip id="veh38" type="veh_passenger" depart="44.60" departLane="best" departSpeed="max" from="46116314#0" to="196116978#0"/>
    <trip id="veh39" type="veh_passenger" depart="45.78" departLane="best" departSpeed="max" from="5672377#0" to="413054286#3"/>
    <trip id="veh40" type="veh_passenger" depart="46.95" departLane="best" departSpeed="max" from="5672377#0" to="413045201#1"/>
    <trip id="veh41" type="veh_passenger" depart="48.12" departLane="best" departSpeed="max" from="-127690685" to="356140737#1"/>
    <trip id="veh42" type="veh_passenger" depart="49.30" departLane="best" departSpeed="max" from="-127690685" to="587038050#1"/>
    <trip id="veh43" type="veh_passenger" depart="50.47" departLane="best" departSpeed="max" from="600222727#0" to="46165812"/>
    <trip id="veh44" type="veh_passenger" depart="51.65" departLane="best" departSpeed="max" from="256902830#0" to="-413045905"/>
    <trip id="veh45" type="veh_passenger" depart="52.82" departLane="best" departSpeed="max" from="600222727#0" to="587038050#1"/>
    <trip id="veh46" type="veh_passenger" depart="53.99" departLane="best" departSpeed="max" from="5672377#0" to="-600222727#0"/>
    <trip id="veh47" type="veh_passenger" depart="55.17" departLane="best" departSpeed="max" from="413050335#0" to="413054286#3"/>
    <trip id="veh48" type="veh_passenger" depart="56.34" departLane="best" departSpeed="max" from="256902830#0" to="5669866#6"/>
    <trip id="veh49" type="veh_passenger" depart="57.51" departLane="best" departSpeed="max" from="46116314#0" to="46165812"/>
    <trip id="veh50" type="veh_passenger" depart="58.69" departLane="best" departSpeed="max" from="-46165812" to="356140737#1"/>
    <trip id="veh52" type="veh_passenger" depart="61.04" departLane="best" departSpeed="max" from="32922453" to="413054286#3"/>
    <trip id="veh53" type="veh_passenger" depart="62.21" departLane="best" departSpeed="max" from="256902830#0" to="222299238#2"/>
    <trip id="veh54" type="veh_passenger" depart="63.38" departLane="best" departSpeed="max" from="-127690685" to="413054286#3"/>
    <trip id="veh55" type="veh_passenger" depart="64.56" departLane="best" departSpeed="max" from="256902830#0" to="5669866#6"/>
    <trip id="veh56" type="veh_passenger" depart="65.73" departLane="best" departSpeed="max" from="600222727#0" to="-413045905"/>
    <trip id="veh57" type="veh_passenger" depart="66.90" departLane="best" departSpeed="max" from="256902830#0" to="-600222727#0"/>
    <trip id="veh58" type="veh_passenger" depart="68.08" departLane="best" departSpeed="max" from="5672377#0" to="222299238#2"/>
    <trip id="veh60" type="veh_passenger" depart="70.43" departLane="best" departSpeed="max" from="5669938#0" to="413054286#3"/>
    <trip id="veh61" type="veh_passenger" depart="71.60" departLane="best" departSpeed="max" from="68668562#0" to="-600222727#0"/>
    <trip id="veh62" type="veh_passenger" depart="72.77" departLane="best" departSpeed="max" from="-46165812" to="413045201#1"/>
    <trip id="veh64" type="veh_passenger" depart="75.12" departLane="best" departSpeed="max" from="256902830#0" to="587038050#1"/>
    <trip id="veh66" type="veh_passenger" depart="77.47" departLane="best" departSpeed="max" from="46116314#0" to="-413045905"/>
    <trip id="veh67" type="veh_passenger" depart="78.64" departLane="best" from="68668562#1" to="46165812"/>
    <trip id="veh68" type="veh_passenger" depart="79.82" departLane="best" departSpeed="max" from="68668562#0" to="587038050#1"/>
    <trip id="veh69" type="veh_passenger" depart="80.99" departLane="best" departSpeed="max" from="600222727#0" to="222299238#2"/>
    <trip id="veh70" type="veh_passenger" depart="82.16" departLane="best" departSpeed="max" from="32922453" to="-413045905"/>
    <trip id="veh71" type="veh_passenger" depart="83.34" departLane="best" departSpeed="max" from="32922453" to="587038050#1"/>
    <trip id="veh72" type="veh_passenger" depart="84.51" departLane="best" departSpeed="max" from="256902830#0" to="46165812"/>
    <trip id="veh74" type="veh_passenger" depart="86.86" departLane="best" departSpeed="max" from="68668562#0" to="587038050#1"/>
    <trip id="veh75" type="veh_passenger" depart="88.03" departLane="best" departSpeed="max" from="46116314#0" to="46165812"/>
    <trip id="veh76" type="veh_passenger" depart="89.21" departLane="best" departSpeed="max" from="-46165812" to="356140737#1"/>
    <trip id="veh77" type="veh_passenger" depart="90.38" departLane="best" departSpeed="max" from="46116314#0" to="46165812"/>
    <trip id="veh78" type="veh_passenger" depart="91.55" departLane="best" departSpeed="max" from="-127690685" to="413054286#3"/>
    <trip id="veh79" type="veh_passenger" depart="92.73" departLane="best" departSpeed="max" from="413050335#0" to="5669866#6"/>
    <trip id="veh80" type="veh_passenger" depart="93.90" departLane="best" departSpeed="max" from="-46165812" to="587038050#1"/>
    <trip id="veh81" type="veh_passenger" depart="95.07" departLane="best" departSpeed="max" from="46116314#0" to="413054286#3"/>
    <trip id="veh82" type="veh_passenger" depart="96.25" departLane="best" departSpeed="max" from="256902830#0" to="-600222727#0"/>
    <trip id="veh83" type="veh_passenger" depart="97.42" departLane="best" departSpeed="max" from="46116314#0" to="413054286#3"/>
    <trip id="veh84" type="veh_passenger" depart="98.60" departLane="best" departSpeed="max" from="32922453" to="413054286#3"/>
    <trip id="veh85" type="veh_passenger" depart="99.77" departLane="best" departSpeed="max" from="413050335#0" to="587038050#1"/>
    <trip id="veh86" type="veh_passenger" depart="100.94" departLane="best" departSpeed="max" from="256902830#0" to="413045201#1"/>
    <trip id="veh87" type="veh_passenger" depart="102.12" departLane="best" from="256902830#1" to="46165812"/>
    <trip id="veh88" type="veh_passenger" depart="103.29" departLane="best" departSpeed="max" from="68668562#0" to="587038050#1"/>
    <trip id="veh89" type="veh_passenger" depart="104.46" departLane="best" departSpeed="max" from="256902830#0" to="587038050#1"/>
    <trip id="veh90" type="veh_passenger" depart="105.64" departLane="best" departSpeed="max" from="600222727#0" to="5669866#6"/>
    <trip id="veh91" type="veh_passenger" depart="106.81" departLane="best" departSpeed="max" from="32922453" to="222299238#2"/>
    <trip id="veh92" type="veh_passenger" depart="107.99" departLane="best" departSpeed="max" from="5672377#0" to="46165812"/>
    <trip id="veh93" type="veh_passenger" depart="109.16" departLane="best" departSpeed="max" from="46116314#0" to="587038050#1"/>
    <trip id="veh94" type="veh_passenger" depart="110.33" departLane="best" departSpeed="max" from="46116329#0" to="-413045905"/>
    <trip id="veh95" type="veh_passenger" depart="111.51" departLane="best" departSpeed="max" from="5672377#0" to="356140737#1"/>
    <trip id="veh96" type="veh_passenger" depart="112.68" departLane="best" departSpeed="max" from="-46165812" to="-600222727#0"/>
    <trip id="veh97" type="veh_passenger" depart="113.85" departLane="best" departSpeed="max" from="-46165812" to="413054286#3"/>
    <trip id="veh98" type="veh_passenger" depart="115.03" departLane="best" departSpeed="max" from="5669938#0" to="222299238#2"/>
    <trip id="veh99" type="veh_passenger" depart="116.20" departLane="best" departSpeed="max" from="413050335#0" to="5669866#6"/>
    <trip id="veh101" type="veh_passenger" depart="118.55" departLane="best" departSpeed="max" from="5672377#0" to="413054286#3"/>
    <trip id="veh102" type="veh_passenger" depart="119.72" departLane="best" departSpeed="max" from="5672377#0" to="413054286#3"/>
    <trip id="veh103" type="veh_passenger" depart="120.90" departLane="best" departSpeed="max" from="-46165812" to="-600222727#0"/>
    <trip id="veh104" type="veh_passenger" depart="122.07" departLane="best" departSpeed="max" from="256902830#0" to="5669866#6"/>
    <trip id="veh105" type="veh_passenger" depart="123.24" departLane="best" departSpeed="max" from="5672377#0" to="5669866#6"/>
    <trip id="veh106" type="veh_passenger" depart="124.42" departLane="best" departSpeed="max" from="68668562#0" to="222299238#2"/>
    <trip id="veh107" type="veh_passenger" depart="125.59" departLane="best" departSpeed="max" from="256902830#0" to="-600222727#0"/>
    <trip id="veh108" type="veh_passenger" depart="126.77" departLane="best" departSpeed="max" from="5672377#0" to="5669866#6"/>
    <trip id="veh109" type="veh_passenger" depart="127.94" departLane="best" departSpeed="max" from="32922453" to="413054286#3"/>
    <trip id="veh110" type="veh_passenger" depart="129.11" departLane="best" departSpeed="max" from="-46165812" to="587038050#1"/>
    <trip id="veh111" type="veh_passenger" depart="130.29" departLane="best" departSpeed="max" from="600222727#0" to="587038050#1"/>
    <trip id="veh112" type="veh_passenger" depart="131.46" departLane="best" departSpeed="max" from="5672377#0" to="5669866#6"/>
    <trip id="veh113" type="veh_passenger" depart="132.63" departLane="best" departSpeed="max" from="32922453" to="587038050#1"/>
    <trip id="veh114" type="veh_passenger" depart="133.81" departLane="best" departSpeed="max" from="5672377#0" to="5669866#6"/>
    <trip id="veh115" type="veh_passenger" depart="134.98" departLane="best" departSpeed="max" from="5672377#0" to="356140737#1"/>
    <trip id="veh116" type="veh_passenger" depart="136.16" departLane="best" departSpeed="max" from="5672377#0" to="-600222727#0"/>
    <trip id="veh117" type="veh_passenger" depart="137.33" departLane="best" departSpeed="max" from="600222727#0" to="5669866#6"/>
    <trip id="veh118" type="veh_passenger" depart="138.50" departLane="best" departSpeed="max" from="256902830#0" to="46165812"/>
    <trip id="veh120" type="veh_passenger" depart="140.85" departLane="best" departSpeed="max" from="5672377#0" to="222299238#2"/>
    <trip id="veh121" type="veh_passenger" depart="142.02" departLane="best" departSpeed="max" from="32922453" to="5669866#6"/>
    <trip id="veh122" type="veh_passenger" depart="143.20" departLane="best" departSpeed="max" from="68668562#0" to="356140737#1"/>
    <trip id="veh123" type="veh_passenger" depart="144.37" departLane="best" departSpeed="max" from="46116329#0" to="413045201#1"/>
    <trip id="veh124" type="veh_passenger" depart="145.55" departLane="best" departSpeed="max" from="68668562#0" to="-600222727#0"/>
    <trip id="veh125" type="veh_passenger" depart="146.72" departLane="best" departSpeed="max" from="68668562#0" to="222299238#2"/>
    <trip id="veh126" type="veh_passenger" depart="147.89" departLane="best" departSpeed="max" from="68668562#0" to="356140737#1"/>
    <trip id="veh127" type="veh_passenger" depart="149.07" departLane="best" departSpeed="max" from="-46165812" to="413045201#1"/>
    <trip id="veh128" type="veh_passenger" depart="150.24" departLane="best" departSpeed="max" from="5669938#0" to="356140737#1"/>
    <trip id="veh129" type="veh_passenger" depart="151.41" departLane="best" departSpeed="max" from="46116314#0" to="413045201#1"/>
    <trip id="veh130" type="veh_passenger" depart="152.59" departLane="best" departSpeed="max" from="32922453" to="413054286#3"/>
    <trip id="veh131" type="veh_passenger" depart="153.76" departLane="best" departSpeed="max" from="256902830#0" to="46165812"/>
    <trip id="veh132" type="veh_passenger" depart="154.94" departLane="best" departSpeed="max" from="-127690685" to="587038050#1"/>
    <trip id="veh133" type="veh_passenger" depart="156.11" departLane="best" departSpeed="max" from="46116314#0" to="46165812"/>
    <trip id="veh134" type="veh_passenger" depart="157.28" departLane="best" departSpeed="max" from="5672377#0" to="413054286#3"/>
    <trip id="veh135" type="veh_passenger" depart="158.46" departLane="best" departSpeed="max" from="32922453" to="-413045905"/>
    <trip id="veh136" type="veh_passenger" depart="159.63" departLane="best" departSpeed="max" from="256902830#0" to="5669866#6"/>
    <trip id="veh137" type="veh_passenger" depart="160.80" departLane="best" departSpeed="max" from="5669938#0" to="356140737#1"/>
    <trip id="veh138" type="veh_passenger" depart="161.98" departLane="best" departSpeed="max" from="256902830#0" to="413045201#1"/>
    <trip id="veh139" type="veh_passenger" depart="163.15" departLane="best" departSpeed="max" from="-46165812" to="413045201#1"/>
    <trip id="veh140" type="veh_passenger" depart="164.33" departLane="best" departSpeed="max" from="-127690685" to="356140737#1"/>
    <trip id="veh142" type="veh_passenger" depart="166.67" departLane="best" departSpeed="max" from="46116329#0" to="413045201#1"/>
    <trip id="veh143" type="veh_passenger" depart="167.85" departLane="best" departSpeed="max" from="413050335#0" to="5669866#6"/>
    <trip id="veh144" type="veh_passenger" depart="169.02" departLane="best" departSpeed="max" from="5672377#0" to="222299238#2"/>
    <trip id="veh145" type="veh_passenger" depart="170.19" departLane="best" departSpeed="max" from="5672377#0" to="46165812"/>
    <trip id="veh146" type="veh_passenger" depart="171.37" departLane="best" departSpeed="max" from="46116329#0" to="222299238#2"/>
    <trip id="veh147" type="veh_passenger" depart="172.54" departLane="best" departSpeed="max" from="256902830#0" to="413045201#1"/>
    <trip id="veh148" type="veh_passenger" depart="173.72" departLane="best" departSpeed="max" from="600222727#0" to="-413045905"/>
    <trip id="veh149" type="veh_passenger" depart="174.89" departLane="best" departSpeed="max" from="32922453" to="413054286#3"/>
    <trip id="veh150" type="veh_passenger" depart="176.06" departLane="best" departSpeed="max" from="413050335#0" to="356140737#1"/>
    <trip id="veh151" type="veh_passenger" depart="177.24" departLane="best" departSpeed="max" from="46116329#0" to="-413045905"/>
    <trip id="veh152" type="veh_passenger" depart="178.41" departLane="best" departSpeed="max" from="5672377#0" to="46165812"/>
    <trip id="veh153" type="veh_passenger" depart="179.58" departLane="best" departSpeed="max" from="-46165812" to="413045201#1"/>
    <trip id="veh154" type="veh_passenger" depart="180.76" departLane="best" departSpeed="max" from="-46165812" to="587038050#1"/>
    <trip id="veh155" type="veh_passenger" depart="181.93" departLane="best" departSpeed="max" from="413050335#0" to="-413045905"/>
    <trip id="veh156" type="veh_passenger" depart="183.11" departLane="best" departSpeed="max" from="256902830#0" to="5669866#6"/>
    <trip id="veh157" type="veh_passenger" depart="184.28" departLane="best" departSpeed="max" from="46116314#0" to="587038050#1"/>
    <trip id="veh158" type="veh_passenger" depart="185.45" departLane="best" departSpeed="max" from="600222727#0" to="413054286#3"/>
    <trip id="veh159" type="veh_passenger" depart="186.63" departLane="best" departSpeed="max" from="5672377#0" to="413054286#3"/>
    <trip id="veh160" type="veh_passenger" depart="187.80" departLane="best" departSpeed="max" from="68668562#0" to="46165812"/>
    <trip id="veh161" type="veh_passenger" depart="188.97" departLane="best" departSpeed="max" from="413050335#0" to="356140737#1"/>
    <trip id="veh162" type="veh_passenger" depart="190.15" departLane="best" departSpeed="max" from="5672377#0" to="413045201#1"/>
    <trip id="veh163" type="veh_passenger" depart="191.32" departLane="best" departSpeed="max" from="-127690685" to="356140737#1"/>
    <trip id="veh164" type="veh_passenger" depart="192.50" departLane="best" departSpeed="max" from="256902830#0" to="356140737#1"/>
    <trip id="veh165" type="veh_passenger" depart="193.67" departLane="best" departSpeed="max" from="256902830#0" to="46165812"/>
    <trip id="veh166" type="veh_passenger" depart="194.84" departLane="best" departSpeed="max" from="5669938#0" to="-413045905"/>
    <trip id="veh167" type="veh_passenger" depart="196.02" departLane="best" departSpeed="max" from="32922453" to="413054286#3"/>
    <trip id="veh168" type="veh_passenger" depart="197.19" departLane="best" departSpeed="max" from="32922453" to="222299238#2"/>
    <trip id="veh169" type="veh_passenger" depart="198.36" departLane="best" departSpeed="max" from="32922453" to="5669866#6"/>
    <trip id="veh170" type="veh_passenger" depart="199.54" departLane="best" departSpeed="max" from="46116314#0" to="46165812"/>
    <trip id="veh171" type="veh_passenger" depart="200.71" departLane="best" departSpeed="max" from="600222727#0" to="46165812"/>
    <trip id="veh172" type="veh_passenger" depart="201.89" departLane="best" departSpeed="max" from="32922453" to="-413045905"/>
    <trip id="veh173" type="veh_passenger" depart="203.06" departLane="best" departSpeed="max" from="32922453" to="46165812"/>
    <trip id="veh174" type="veh_passenger" depart="204.23" departLane="best" departSpeed="max" from="600222727#0" to="587038050#1"/>
    <trip id="veh175" type="veh_passenger" depart="205.41" departLane="best" departSpeed="max" from="32922453" to="46165812"/>
    <trip id="veh176" type="veh_passenger" depart="206.58" departLane="best" departSpeed="max" from="46116314#0" to="413054286#3"/>
    <trip id="veh177" type="veh_passenger" depart="207.75" departLane="best" departSpeed="max" from="256902830#0" to="222299238#2"/>
    <trip id="veh178" type="veh_passenger" depart="208.93" departLane="best" departSpeed="max" from="32922453" to="413054286#3"/>
    <trip id="veh179" type="veh_passenger" depart="210.10" departLane="best" departSpeed="max" from="32922453" to="222299238#2"/>
    <trip id="veh181" type="veh_passenger" depart="212.45" departLane="best" departSpeed="max" from="46116314#0" to="-413045905"/>
    <trip id="veh182" type="veh_passenger" depart="213.62" departLane="best" departSpeed="max" from="32922453" to="413054286#3"/>
    <trip id="veh183" type="veh_passenger" depart="214.80" departLane="best" departSpeed="max" from="-127690685" to="413054286#3"/>
    <trip id="veh184" type="veh_passenger" depart="215.97" departLane="best" departSpeed="max" from="-46165812" to="413045201#1"/>
    <trip id="veh185" type="veh_passenger" depart="217.14" departLane="best" departSpeed="max" from="-127690685" to="356140737#1"/>
    <trip id="veh186" type="veh_passenger" depart="218.32" departLane="best" from="222299254" to="356140737#1"/>
    <trip id="veh187" type="veh_passenger" depart="219.49" departLane="best" departSpeed="max" from="5672377#0" to="356140737#1"/>
    <trip id="veh188" type="veh_passenger" depart="220.67" departLane="best" departSpeed="max" from="5672377#0" to="46165812"/>
    <trip id="veh189" type="veh_passenger" depart="221.84" departLane="best" departSpeed="max" from="256902830#0" to="-600222727#0"/>
    <trip id="veh190" type="veh_passenger" depart="223.01" departLane="best" departSpeed="max" from="-127690685" to="413054286#3"/>
    <trip id="veh191" type="veh_passenger" depart="224.19" departLane="best" from="68668562#3" to="356140737#1"/>
    <trip id="veh192" type="veh_passenger" depart="225.36" departLane="best" departSpeed="max" from="46116329#0" to="46165812"/>
    <trip id="veh193" type="veh_passenger" depart="226.53" departLane="best" departSpeed="max" from="46116329#0" to="46165812"/>
    <trip id="veh194" type="veh_passenger" depart="227.71" departLane="best" departSpeed="max" from="68668562#0" to="222299238#2"/>
    <trip id="veh195" type="veh_passenger" depart="228.88" departLane="best" departSpeed="max" from="-46165812" to="413054286#3"/>
    <trip id="veh196" type="veh_passenger" depart="230.06" departLane="best" departSpeed="max" from="46116314#0" to="222299238#2"/>
    <trip id="veh197" type="veh_passenger" depart="231.23" departLane="best" departSpeed="max" from="5669938#0" to="46165812"/>
    <trip id="veh198" type="veh_passenger" depart="232.40" departLane="best" departSpeed="max" from="-46165812" to="413054286#3"/>
    <trip id="veh199" type="veh_passenger" depart="233.58" departLane="best" departSpeed="max" from="5672377#0" to="-600222727#0"/>
    <trip id="veh200" type="veh_passenger" depart="234.75" departLane="best" departSpeed="max" from="5672377#0" to="587038050#1"/>
    <trip id="veh201" type="veh_passenger" depart="235.92" departLane="best" departSpeed="max" from="5669938#0" to="-46116314#0"/>
    <trip id="veh202" type="veh_passenger" depart="237.10" departLane="best" departSpeed="max" from="5669938#0" to="413054286#3"/>
    <trip id="veh203" type="veh_passenger" depart="238.27" departLane="best" departSpeed="max" from="600222727#0" to="413054286#3"/>
    <trip id="veh204" type="veh_passenger" depart="239.45" departLane="best" departSpeed="max" from="-46165812" to="587038050#1"/>
    <trip id="veh205" type="veh_passenger" depart="240.62" departLane="best" departSpeed="max" from="5672377#0" to="356140737#1"/>
    <trip id="veh207" type="veh_passenger" depart="242.97" departLane="best" departSpeed="max" from="413050335#0" to="356140737#1"/>
    <trip id="veh208" type="veh_passenger" depart="244.14" departLane="best" departSpeed="max" from="600222727#0" to="46165812"/>
    <trip id="veh209" type="veh_passenger" depart="245.31" departLane="best" departSpeed="max" from="-46165812" to="587038050#1"/>
    <trip id="veh210" type="veh_passenger" depart="246.49" departLane="best" departSpeed="max" from="46116329#0" to="46165812"/>
    <trip id="veh211" type="veh_passenger" depart="247.66" departLane="best" departSpeed="max" from="5669938#0" to="587038050#1"/>
    <trip id="veh212" type="veh_passenger" depart="248.84" departLane="best" departSpeed="max" from="256902830#0" to="46165812"/>
    <trip id="veh213" type="veh_passenger" depart="250.01" departLane="best" departSpeed="max" from="46116314#0" to="413045201#1"/>
    <trip id="veh214" type="veh_passenger" depart="251.18" departLane="best" departSpeed="max" from="256902830#0" to="5669866#6"/>
    <trip id="veh215" type="veh_passenger" depart="252.36" departLane="best" departSpeed="max" from="5672377#0" to="-600222727#0"/>
    <trip id="veh217" type="veh_passenger" depart="254.70" departLane="best" departSpeed="max" from="32922453" to="-413045905"/>
    <trip id="veh218" type="veh_passenger" depart="255.88" departLane="best" departSpeed="max" from="600222727#0" to="222299238#2"/>
    <trip id="veh219" type="veh_passenger" depart="257.05" departLane="best" from="222299277" to="46165812"/>
    <trip id="veh220" type="veh_passenger" depart="258.23" departLane="best" departSpeed="max" from="32922453" to="5669866#6"/>
    <trip id="veh221" type="veh_passenger" depart="259.40" departLane="best" departSpeed="max" from="5669938#0" to="356140737#1"/>
    <trip id="veh222" type="veh_passenger" depart="260.57" departLane="best" departSpeed="max" from="-127690685" to="587038050#1"/>
    <trip id="veh223" type="veh_passenger" depart="261.75" departLane="best" departSpeed="max" from="5669938#0" to="413054286#3"/>
    <trip id="veh224" type="veh_passenger" depart="262.92" departLane="best" departSpeed="max" from="5669938#0" to="356140737#1"/>
    <trip id="veh225" type="veh_passenger" depart="264.09" departLane="best" departSpeed="max" from="46116314#0" to="413045201#1"/>
    <trip id="veh226" type="veh_passenger" depart="265.27" departLane="best" departSpeed="max" from="46116314#0" to="413045201#1"/>
    <trip id="veh227" type="veh_passenger" depart="266.44" departLane="best" departSpeed="max" from="5672377#0" to="356140737#1"/>
    <trip id="veh228" type="veh_passenger" depart="267.62" departLane="best" departSpeed="max" from="5669938#0" to="356140737#1"/>
    <trip id="veh229" type="veh_passenger" depart="268.79" departLane="best" departSpeed="max" from="256902830#0" to="-600222727#0"/>
    <trip id="veh230" type="veh_passenger" depart="269.96" departLane="best" departSpeed="max" from="-46165812" to="-600222727#0"/>
    <trip id="veh231" type="veh_passenger" depart="271.14" departLane="best" departSpeed="max" from="46116314#0" to="46165812"/>
    <trip id="veh232" type="veh_passenger" depart="272.31" departLane="best" departSpeed="max" from="256902830#0" to="-600222727#0"/>
    <trip id="veh233" type="veh_passenger" depart="273.48" departLane="best" departSpeed="max" from="5669938#0" to="-600222727#0"/>
    <trip id="veh234" type="veh_passenger" depart="274.66" departLane="best" departSpeed="max" from="600222727#0" to="413045201#1"/>
    <trip id="veh235" type="veh_passenger" depart="275.83" departLane="best" departSpeed="max" from="600222727#0" to="413054286#3"/>