<?xml version="1.0" encoding="UTF-8"?>

<!-- generated on Fri Sep 20 09:56:38 2019 by Eclipse SUMO polyconvert Version 1.2.0
<configuration xmlns:xsi="http://www.w3.org/2001/XMLSchema-instance" xsi:noNamespaceSchemaLocation="http://sumo.dlr.de/xsd/polyconvertConfiguration.xsd">

    <input>
        <net-file value="osm.net.xml"/>
        <osm-files value="osm_bbox.osm.xml"/>
        <osm.keep-full-type value="true"/>
        <type-file value="/usr/share/sumo/data/typemap/osmPolyconvert.typ.xml"/>
    </input>

    <output>
        <output-file value="osm.poly.xml"/>
    </output>

    <processing>
        <poi-layer-offset value="5"/>
    </processing>

    <report>
        <verbose value="true"/>
    </report>

</configuration>
-->

<additional xmlns:xsi="http://www.w3.org/2001/XMLSchema-instance" xsi:noNamespaceSchemaLocation="http://sumo.dlr.de/xsd/additional_file.xsd">
    <location netOffset="-633360.43,-3925331.46" convBoundary="0.00,-447.64,1660.50,2227.09" origBoundary="-97.530043,35.458468,-97.510690,35.482421" projParameter="+proj=utm +zone=14 +ellps=WGS84 +datum=WGS84 +units=m +no_defs"/>

    <poly id="113737380" type="building.yes" color="255,230,230" fill="1" layer="-1.00" shape="991.400594,704.067793 988.696932,689.482748 984.796938,689.912396 983.452337,682.137386 983.305496,675.589609 985.124007,668.106114 986.171270,663.029586 1008.773248,662.225917 1034.099555,661.318956 1096.021354,659.108601 1095.494897,671.204472 1088.940743,672.503958 1081.185014,674.040581 1081.412112,675.841250 1081.622393,677.552913 1089.678223,675.976419 1090.569208,681.315009 1090.264193,685.914524 1088.986364,690.022386 1086.002821,694.093551 1083.041091,696.711704 1078.380642,698.827310 1073.012600,699.711936 1067.922181,698.426269 1062.136731,694.467565 1058.104271,689.814050 1051.436591,691.422497 1045.852860,692.769860 1045.326590,695.180498 1041.538901,697.198277 1040.101788,690.753172 1020.731108,695.776656 1019.946959,699.647860 1017.111687,700.492859 1015.532626,694.433926 994.391409,699.508563 994.099165,702.654931 991.400594,704.067793"/>
    <poly id="113737383" type="building.yes" color="255,230,230" fill="1" layer="-1.00" shape="426.283355,907.662953 426.201235,896.756158 423.034546,896.708856 422.756435,883.125440 425.678141,883.169083 425.830070,872.998000 491.788165,873.251270 491.374718,885.126949 493.810096,884.919274 493.458837,908.422575 487.132759,907.839890 487.287242,913.899616 471.952873,913.670465 471.544401,908.816209 465.218157,908.244631 458.890214,908.394153 451.557135,910.214976 446.196423,910.623030 440.864710,909.090040 440.890062,907.393011 426.283355,907.662953"/>
    <poly id="113737390" type="building.yes" color="255,230,230" fill="1" layer="-1.00" shape="886.104190,796.601023 886.577978,821.303796 823.850650,822.238741 823.975888,797.522765 827.988331,795.641395 835.290284,793.487581 840.592463,792.146967 848.276714,791.130498 848.549254,794.141107 852.197057,794.184673 854.743123,791.438184 857.879535,794.114506 861.128593,794.118818 861.374922,791.005042 872.362735,792.412257 880.239685,794.283193 886.104190,796.601023"/>
    <poly id="113737394" type="building.yes" color="255,230,230" fill="1" layer="-1.00" shape="1236.808297,699.487007 1198.017231,700.745814 1197.617687,656.052346 1230.340170,655.800666 1236.666995,655.740417 1236.814014,670.719808 1235.098221,670.749496 1233.755456,670.718225 1233.816113,682.989332 1235.297483,682.856273 1236.532193,682.830450 1236.808297,699.487007"/>
    <poly id="113737396" type="amenity.fountain" color="237,199,199" fill="1" layer="-1.00" shape="893.039859,727.455035 892.983334,719.721537 914.205030,719.562599 914.270611,727.296234 893.039859,727.455035"/>
    <poly id="113737399" type="building.yes" color="255,230,230" fill="1" layer="-1.00" shape="975.132749,820.512552 974.684932,789.253482 1036.303640,787.825896 1067.734893,787.099407 1068.316996,819.669627 1025.718792,820.051045 975.132749,820.512552"/>
    <poly id="113737402" type="building.office" color="255,230,230" fill="1" layer="-1.00" shape="1150.742808,784.629066 1147.184955,788.869094 1147.477603,794.764512 1147.633478,812.184757 1151.071476,815.320578 1179.411766,814.936362 1181.479023,812.049638 1182.740436,812.057492 1183.884724,812.008116 1187.860178,811.990175 1188.893915,812.050081 1189.920078,812.010026 1191.695497,814.654930 1220.358617,814.530860 1223.338834,811.890841 1223.244970,804.245520 1222.338117,802.989342 1223.500906,801.708791 1223.393911,797.957340 1222.416134,796.589154 1223.276250,794.915758 1223.429265,788.960467 1220.895340,784.850817 1208.230559,784.516304 1208.291485,773.212220 1208.269797,770.427248 1208.241034,767.509038 1208.321473,753.697957 1221.306712,753.848681 1224.077770,750.029533 1224.098103,743.240183 1223.187076,742.261297 1224.145250,741.310499 1224.223914,736.075214 1223.667931,735.024004 1224.345985,733.991336 1224.286246,726.490753 1221.374684,723.351721 1190.298140,723.406263 1188.879190,725.426282 1187.709169,725.375424 1186.537982,725.402208 1185.838966,725.413896 1184.704574,725.407950 1183.396780,725.465964 1182.354625,725.361556 1181.427265,725.469663 1180.402258,725.432078 1178.457490,723.184025 1158.354347,723.192722 1154.395309,726.949672 1154.185508,751.797542 1155.584271,753.538151 1157.817252,753.516215 1160.273746,753.719522 1160.272047,767.731479 1160.143495,770.247933 1160.075627,772.953900 1159.914284,784.300851 1155.313897,784.231759 1150.742808,784.629066"/>
    <poly id="113737407" type="amenity.police" color="237,199,199" fill="1" layer="-1.00" shape="512.723301,770.188671 522.588607,734.368826 510.903366,734.682311 510.345422,707.038395 510.305114,705.484608 449.174911,707.000788 449.215230,708.554574 449.516978,721.162055 444.404957,721.318664 443.998151,715.743315 430.855657,715.791065 431.241645,761.038840 445.120703,760.891155 445.176421,743.795876 452.105959,744.087999 452.512863,760.591105 464.680756,760.772900 464.868119,768.885536 469.740717,768.958340 470.179861,771.760632 512.723301,770.188671"/>
    <poly id="113737407#1" type="building.yes" color="255,230,230" fill="1" layer="-1.00" shape="512.723301,770.188671 522.588607,734.368826 510.903366,734.682311 510.345422,707.038395 510.305114,705.484608 449.174911,707.000788 449.215230,708.554574 449.516978,721.162055 444.404957,721.318664 443.998151,715.743315 430.855657,715.791065 431.241645,761.038840 445.120703,760.891155 445.176421,743.795876 452.105959,744.087999 452.512863,760.591105 464.680756,760.772900 464.868119,768.885536 469.740717,768.958340 470.179861,771.760632 512.723301,770.188671"/>
    <poly id="113737408" type="building.yes" color="255,230,230" fill="1" layer="-1.00" shape="1121.856479,1048.636822 1120.943054,1005.511010 1239.670208,1003.056572 1240.573989,1046.182276 1121.856479,1048.636822"/>
    <poly id="113737409" type="building.yes" color="255,230,230" fill="1" layer="-1.00" shape="1121.775868,997.191765 1120.864303,960.589379 1236.766431,957.737442 1237.677524,994.339854 1121.775868,997.191765"/>
    <poly id="113737412" type="amenity.townhall" color="237,199,199" fill="1" layer="-1.00" shape="844.050707,757.596007 844.261272,743.542825 841.825845,743.750406 841.764556,739.966369 841.524053,724.519656 841.292954,709.050895 841.203478,703.513554 843.337985,703.401311 843.064575,690.150754 855.389826,690.135737 865.382605,690.119066 865.150176,703.206726 868.951773,703.285885 869.247388,724.136297 869.524060,743.222450 866.894494,743.061007 867.135918,757.231906 856.523871,757.394611 844.050707,757.596007"/>
    <poly id="113737412#1" type="building.yes" color="255,230,230" fill="1" layer="-1.00" shape="844.050707,757.596007 844.261272,743.542825 841.825845,743.750406 841.764556,739.966369 841.524053,724.519656 841.292954,709.050895 841.203478,703.513554 843.337985,703.401311 843.064575,690.150754 855.389826,690.135737 865.382605,690.119066 865.150176,703.206726 868.951773,703.285885 869.247388,724.136297 869.524060,743.222450 866.894494,743.061007 867.135918,757.231906 856.523871,757.394611 844.050707,757.596007"/>
    <poly id="113737414" type="building.office" color="255,230,230" fill="1" layer="-1.00" shape="1135.328564,683.928473 1135.588115,669.665225 1135.538094,667.556575 1135.632756,665.483380 1135.681480,660.425155 1181.461079,659.171193 1185.153773,662.876654 1186.183106,663.835124 1187.211605,664.849051 1194.419836,671.968870 1194.778007,696.459166 1186.256512,696.408816 1184.886197,696.399327 1183.651822,696.402973 1148.040607,696.234233 1135.328564,683.928473"/>
    <poly id="113737416" type="building.yes" color="255,230,230" fill="1" layer="-1.00" shape="1197.437064,582.284256 1196.470509,526.998408 1230.432861,526.410318 1231.399207,581.696176 1197.437064,582.284256"/>
    <poly id="113737417" type="amenity.theatre" color="237,199,199" fill="1" layer="-1.00" shape="544.172214,755.526328 543.885030,741.953862 556.301592,741.895425 556.177004,701.666093 562.991434,701.767979 563.067555,696.676892 645.615576,695.248914 652.083458,702.135320 651.996499,707.947368 655.395525,708.242296 655.586210,717.941460 655.776063,727.696083 655.849160,731.302785 656.044269,741.312653 656.221947,750.667704 652.332954,750.365444 651.990050,756.905879 645.805589,763.835963 556.948227,764.204382 557.075092,755.719236 544.172214,755.526328"/>
    <poly id="113737417#1" type="building.yes" color="255,230,230" fill="1" layer="-1.00" shape="544.172214,755.526328 543.885030,741.953862 556.301592,741.895425 556.177004,701.666093 562.991434,701.767979 563.067555,696.676892 645.615576,695.248914 652.083458,702.135320 651.996499,707.947368 655.395525,708.242296 655.586210,717.941460 655.776063,727.696083 655.849160,731.302785 656.044269,741.312653 656.221947,750.667704 652.332954,750.365444 651.990050,756.905879 645.805589,763.835963 556.948227,764.204382 557.075092,755.719236 544.172214,755.526328"/>
    <poly id="113737426" type="building.office" color="255,230,230" fill="1" layer="-1.00" shape="1177.510819,646.630877 1177.363502,608.098490 1196.594808,608.143291 1200.677864,611.843528 1204.387566,607.772213 1234.585602,607.016660 1228.384169,614.434256 1228.508469,646.631515 1223.357336,646.365515 1221.304138,646.501078 1219.371234,646.483131 1206.273786,646.541520 1203.269498,646.551857 1202.261963,646.558909 1200.719070,646.557919 1177.510819,646.630877"/>
    <poly id="113737436" type="building.yes" color="255,230,230" fill="1" layer="-1.00" shape="1116.578193,754.627657 1116.529044,740.370867 1116.689009,725.484848 1125.340838,725.315205 1147.071015,725.142265 1154.350537,725.096267 1154.395309,726.949672 1154.185508,751.797542 1154.037731,753.781185 1147.339954,753.769354 1116.578193,754.627657"/>
    <poly id="113738583" type="building.yes" color="255,230,230" fill="1" layer="-1.00" shape="823.671365,655.490416 823.311958,612.838982 838.034986,612.715632 838.394157,655.378161 823.671365,655.490416"/>
    <poly id="139931589" type="landuse.retail" color="194,194,130" fill="1" layer="-3.00" shape="621.458006,1123.411299 622.134475,1078.800616 651.685360,1078.721329 651.912594,1112.661839 631.736795,1112.737157 630.927963,1123.730486 621.458006,1123.411299"/>
    <poly id="139931592" type="landuse.residential" color="235,235,227" fill="1" layer="-3.00" shape="510.892654,960.670441 656.639247,958.723113 663.112617,973.719468 662.334998,1012.947957 662.184769,1057.555422 509.933710,1058.218283 510.469935,1015.058861 510.892654,960.670441"/>
    <poly id="139932865" type="landuse.industrial" color="209,209,204" fill="1" layer="-3.00" shape="315.088091,1127.220291 316.131274,1085.299914 372.096468,1082.463267 372.004755,1126.894045 315.088091,1127.220291"/>
    <poly id="139932873" type="landuse.industrial" color="209,209,204" fill="1" layer="-3.00" shape="509.227153,1082.415213 470.730199,1082.949271 470.497550,1125.846967 510.563848,1125.347470 509.227153,1082.415213"/>
    <poly id="139932877" type="landuse.retail" color="194,194,130" fill="1" layer="-3.00" shape="388.319251,1060.861108 390.144015,1044.413518 390.378978,1016.526286 388.102528,1016.425725 342.845941,1016.227031 342.960928,1060.805108 388.319251,1060.861108"/>
    <poly id="139932878" type="amenity.bar" color="237,199,199" fill="1" layer="-1.00" shape="405.752182,1084.019838 430.339359,1083.898968 429.816720,1126.781230 405.725090,1126.543391 405.825033,1103.446819 405.752182,1084.019838"/>
    <poly id="139932878#1" type="landuse.commercial" color="209,209,204" fill="1" layer="-3.00" shape="405.752182,1084.019838 430.339359,1083.898968 429.816720,1126.781230 405.725090,1126.543391 405.825033,1103.446819 405.752182,1084.019838"/>
    <poly id="139936348" type="landuse.commercial" color="209,209,204" fill="1" layer="-3.00" shape="549.467571,1175.287097 549.569417,1130.845336 603.742706,1130.091245 603.405069,1173.897122 549.467571,1175.287097"/>
    <poly id="139936357" type="landuse.commercial" color="209,209,204" fill="1" layer="-3.00" shape="648.920438,1239.235006 585.352318,1240.158908 585.850868,1194.691309 646.164149,1193.574467 649.322602,1195.984791 649.047356,1225.901693 648.920438,1239.235006"/>
    <poly id="139936358" type="landuse.commercial" color="209,209,204" fill="1" layer="-3.00" shape="408.429563,1132.619016 453.747680,1131.698475 452.739845,1083.745492 470.730199,1082.949271 470.497550,1125.846967 470.669392,1131.352246 508.761318,1130.579165 507.916189,1240.543119 404.725805,1242.052082 408.429563,1132.619016"/>
    <poly id="139936358#1" type="shop.car_repair" color="237,199,255" fill="1" layer="-1.00" shape="408.429563,1132.619016 453.747680,1131.698475 452.739845,1083.745492 470.730199,1082.949271 470.497550,1125.846967 470.669392,1131.352246 508.761318,1130.579165 507.916189,1240.543119 404.725805,1242.052082 408.429563,1132.619016"/>
    <poly id="139936365" type="landuse.commercial" color="209,209,204" fill="1" layer="-3.00" shape="572.953711,1240.883193 572.992827,1194.576662 556.483667,1194.651507 543.192879,1194.952010 529.598363,1195.536440 524.947217,1197.663552 524.629468,1240.770783 572.953711,1240.883193"/>
    <poly id="139936365#1" type="tourism.hotel" color="207,245,201" fill="1" layer="-2.00" shape="572.953711,1240.883193 572.992827,1194.576662 556.483667,1194.651507 543.192879,1194.952010 529.598363,1195.536440 524.947217,1197.663552 524.629468,1240.770783 572.953711,1240.883193"/>
    <poly id="139939896" type="landuse.retail" color="194,194,130" fill="1" layer="-3.00" shape="386.934188,1249.008655 355.338948,1249.291242 355.078630,1291.644900 382.841846,1291.504783 386.576206,1286.346294 386.934188,1249.008655"/>
    <poly id="139939903" type="landuse.commercial" color="209,209,204" fill="1" layer="-3.00" shape="664.372934,1288.535846 664.535685,1244.915934 683.186550,1244.840066 681.033130,1289.273343 664.372934,1288.535846"/>
    <poly id="139939905" type="amenity.nursing_home" color="237,199,199" fill="1" layer="-1.00" shape="324.577738,1316.506421 324.126550,1358.280332 431.055292,1357.325591 431.156478,1407.650291 508.783536,1406.536118 507.982136,1247.666568 455.924197,1247.809351 455.515912,1290.316135 455.256556,1314.353342 324.577738,1316.506421"/>
    <poly id="139939905#1" type="landuse.commercial" color="209,209,204" fill="1" layer="-3.00" shape="324.577738,1316.506421 324.126550,1358.280332 431.055292,1357.325591 431.156478,1407.650291 508.783536,1406.536118 507.982136,1247.666568 455.924197,1247.809351 455.515912,1290.316135 455.256556,1314.353342 324.577738,1316.506421"/>
    <poly id="139939906" type="landuse.residential" color="235,235,227" fill="1" layer="-3.00" shape="556.585807,1312.839353 539.860485,1312.212053 540.368527,1356.529814 556.058316,1356.609112 556.585807,1312.839353"/>
    <poly id="139939908" type="landuse.retail" color="194,194,130" fill="1" layer="-3.00" shape="404.022761,1249.019816 423.821500,1248.039738 423.491183,1251.318679 423.554921,1260.416854 424.771066,1260.412834 423.751190,1291.017521 404.841096,1291.445066 404.022761,1249.019816"/>
    <poly id="140026884" type="amenity.school" color="237,199,199" fill="1" layer="-1.00" shape="787.637691,1404.540764 788.502374,1309.864751 665.259508,1311.159071 664.531176,1404.694377 787.637691,1404.540764"/>
    <poly id="140026885" type="amenity.parking" color="184,184,179" fill="1" layer="-1.00" shape="547.521550,1585.199176 547.384554,1628.342422 547.370586,1631.703752 537.573550,1631.446304 529.064694,1631.219222 529.219494,1585.058626 537.649225,1585.118111 547.521550,1585.199176"/>
    <poly id="140026885#1" type="landuse.commercial" color="209,209,204" fill="1" layer="-3.00" shape="547.521550,1585.199176 547.384554,1628.342422 547.370586,1631.703752 537.573550,1631.446304 529.064694,1631.219222 529.219494,1585.058626 537.649225,1585.118111 547.521550,1585.199176"/>
    <poly id="140026893" type="landuse.commercial" color="209,209,204" fill="1" layer="-3.00" shape="727.648049,1588.371744 756.632027,1589.072076 756.362325,1634.343463 727.402723,1633.843186 727.648049,1588.371744"/>
    <poly id="140026893#1" type="tourism.hotel" color="207,245,201" fill="1" layer="-2.00" shape="727.648049,1588.371744 756.632027,1589.072076 756.362325,1634.343463 727.402723,1633.843186 727.648049,1588.371744"/>
    <poly id="140026899" type="amenity.social_facility" color="237,199,199" fill="1" layer="-1.00" shape="473.709380,1578.293397 509.721616,1578.709681 510.025141,1534.126691 474.985356,1533.602912 473.709380,1578.293397"/>
    <poly id="140026917" type="landuse.residential" color="235,235,227" fill="1" layer="-3.00" shape="720.620973,1474.029586 758.336797,1474.039685 757.787976,1517.953392 719.180423,1517.508355 720.620973,1474.029586"/>
    <poly id="140031386" type="landuse.commercial" color="209,209,204" fill="1" layer="-3.00" shape="355.624524,1408.851890 354.804214,1365.938473 385.115591,1365.914082 385.026956,1408.913779 355.624524,1408.851890"/>
    <poly id="140038124" type="landuse.commercial" color="209,209,204" fill="1" layer="-3.00" shape="786.647354,1516.688272 772.492963,1518.328969 772.529576,1473.475675 788.302163,1473.467875 788.756640,1514.611973 786.647354,1516.688272"/>
    <poly id="140046250" type="landuse.commercial" color="209,209,204" fill="1" layer="-3.00" shape="702.394705,1244.517413 683.186550,1244.840066 681.033130,1289.273343 702.385458,1288.783094 702.394705,1244.517413"/>
    <poly id="140046251" type="landuse.commercial" color="209,209,204" fill="1" layer="-3.00" shape="788.353865,1242.232314 787.477086,1286.828937 719.797854,1288.378128 719.808018,1244.056987 788.353865,1242.232314"/>
    <poly id="140046255" type="leisure.park" color="207,245,201" fill="1" layer="-2.00" shape="405.932995,1015.405097 407.425344,975.643696 411.974736,974.258310 422.410950,974.303254 422.146170,956.182520 510.917008,954.790892 510.892654,960.670441 509.933710,1058.218283 510.028649,1061.581237 411.579663,1062.684037 409.748153,1062.567927 408.655569,1062.196594 407.175643,1061.630875 406.209462,1060.695628 405.766724,1059.956800 405.654771,1058.945558 405.386620,1057.454934 405.257260,1055.178697 405.932995,1015.405097"/>
    <poly id="140046256" type="leisure.park" color="207,245,201" fill="1" layer="-2.00" shape="458.728868,1515.598170 408.310813,1514.811569 405.276832,1514.400138 403.374031,1513.595122 401.900020,1512.031012 400.504888,1510.046502 399.645267,1507.448718 399.492344,1504.928056 400.028296,1472.086202 400.446388,1430.123177 400.627423,1426.509180 401.134804,1424.741690 401.863049,1423.376891 403.376548,1421.690995 404.345623,1420.607148 405.381982,1419.879319 407.734102,1419.160051 417.181330,1419.156955 505.422008,1417.713179 507.831966,1417.982183 509.964093,1418.624237 510.477564,1419.486165 511.106616,1421.115320 512.546682,1428.592139 515.407192,1445.464779 515.775302,1448.765255 515.850588,1452.227765 515.563071,1464.782082 515.494870,1478.449097 515.359672,1505.095305 515.280668,1509.165689 514.700517,1510.943179 513.805798,1512.516271 512.870854,1513.744842 511.587986,1515.179001 509.576674,1516.169597 506.903082,1516.540112 458.728868,1515.598170"/>
    <poly id="140046260" type="landuse.residential" color="235,235,227" fill="1" layer="-3.00" shape="455.924197,1247.809351 428.418822,1248.297020 428.154998,1251.377259 423.491183,1251.318679 423.554921,1260.416854 424.771066,1260.412834 423.751190,1291.017521 455.515912,1290.316135 455.924197,1247.809351"/>
    <poly id="140046263" type="landuse.residential" color="235,235,227" fill="1" layer="-3.00" shape="549.571276,1469.373242 526.370874,1469.070706 526.238000,1488.882932 548.914106,1489.044499 549.571276,1469.373242"/>
    <poly id="140048862" type="landuse.commercial" color="209,209,204" fill="1" layer="-3.00" shape="372.004755,1126.894045 386.992181,1126.629716 388.552554,1084.739245 384.434990,1082.736273 372.096468,1082.463267 372.004755,1126.894045"/>
    <poly id="140048864" type="amenity.fire_station" color="237,199,199" fill="1" layer="-1.00" shape="265.153486,1134.640396 265.188905,1177.275797 304.711216,1176.112718 311.879539,1178.016966 381.252260,1177.355297 387.562900,1171.059299 387.708770,1132.731117 265.153486,1134.640396"/>
    <poly id="140050205" type="landuse.residential" color="235,235,227" fill="1" layer="-3.00" shape="704.047511,1517.226306 704.439953,1465.555425 530.072062,1464.311169 529.750894,1420.240270 786.955668,1420.384155 786.583698,1467.628772 772.553189,1467.052488 772.529576,1473.475675 772.492963,1518.328969 757.787976,1517.953392 758.336797,1474.039685 757.792683,1466.742649 720.878534,1465.313405 720.620973,1474.029586 719.180423,1517.508355 704.047511,1517.226306"/>
    <poly id="140050964" type="amenity.hospital" color="237,199,199" fill="1" layer="-1.00" shape="430.968473,1798.617517 422.250736,1796.590150 415.480561,1793.582319 411.513887,1790.006199 407.209614,1785.337807 404.770792,1779.110817 407.584619,1703.745699 351.150199,1706.053522 351.998240,1660.202854 351.349582,1641.654797 335.105667,1642.255400 334.687843,1596.696475 400.406345,1596.834789 400.267772,1581.811200 419.605752,1582.466201 419.685625,1577.120000 420.601893,1532.191167 474.985356,1533.602912 473.709380,1578.293397 473.665314,1583.063237 510.013844,1584.050353 508.230310,1649.324065 547.359675,1650.031188 547.370586,1631.703752 547.384554,1628.342422 547.521550,1585.199176 547.801485,1579.223595 529.130745,1578.855649 530.362296,1534.120119 718.662066,1537.581087 748.996150,1537.824553 749.092343,1583.511900 727.663434,1583.102231 727.648049,1588.371744 727.402723,1633.843186 727.451651,1655.422134 755.251289,1656.415374 756.362325,1634.343463 756.632027,1589.072076 785.112208,1588.267238 785.428443,1654.992500 787.110210,1656.615260 785.808394,1761.680042 730.940381,1761.202098 736.380549,1793.024080 736.625285,1801.525903 430.968473,1798.617517"/>
    <poly id="140062972" type="landuse.residential" color="235,235,227" fill="1" layer="-3.00" shape="420.601893,1532.191167 403.871018,1531.963411 401.174784,1535.672966 401.396321,1576.125651 419.685625,1577.120000 420.601893,1532.191167"/>
    <poly id="140062973" type="landuse.residential" color="235,235,227" fill="1" layer="-3.00" shape="134.878750,1595.324046 167.833781,1596.270278 195.950695,1596.079427 195.538223,1643.811482 195.977866,1662.400772 180.085866,1663.140034 179.909224,1721.836647 258.472006,1721.677388 257.753288,1744.298778 318.157462,1745.344615 320.531615,1712.752085 291.468895,1711.885559 291.201778,1706.678403 291.624082,1660.754823 242.326050,1661.594493 244.771419,1562.781916 211.363415,1562.383358 211.667190,1545.668978 212.076116,1527.380795 320.653919,1525.850340 321.716376,1544.648638 323.246704,1591.677502 323.466555,1598.226347 306.718822,1597.920856 306.016094,1642.564418 320.612650,1642.893267 319.846010,1661.420189 321.000474,1706.268992 351.150199,1706.053522 351.998240,1660.202854 334.874295,1660.790315 335.105667,1642.255400 334.687843,1596.696475 334.653232,1590.505408 383.135290,1589.642947 384.831884,1428.658498 355.320770,1429.194068 355.624524,1408.851890 354.804214,1365.938473 137.483185,1367.056097 135.683322,1412.304537 261.284586,1410.350354 260.978634,1483.156820 153.579585,1482.897247 153.034297,1529.207252 152.799389,1546.788001 135.636010,1546.964779 134.878750,1595.324046"/>
    <poly id="140062978" type="landuse.residential" color="235,235,227" fill="1" layer="-3.00" shape="400.189216,1615.014906 400.468342,1624.881801 403.102877,1628.338164 435.201514,1628.895390 435.551499,1582.393811 431.294811,1582.430057 431.168693,1590.870844 423.322454,1590.631576 423.379660,1615.350265 400.189216,1615.014906"/>
    <poly id="140063841" type="landuse.residential" color="235,235,227" fill="1" layer="-3.00" shape="563.326322,1469.556759 563.381321,1514.422472 656.063309,1516.319430 656.472718,1470.772807 563.326322,1469.556759"/>
    <poly id="140063842" type="landuse.residential" color="235,235,227" fill="1" layer="-3.00" shape="526.238000,1488.882932 526.102540,1510.081893 529.269668,1514.333944 563.381321,1514.422472 563.326322,1469.556759 549.571276,1469.373242 548.914106,1489.044499 526.238000,1488.882932"/>
    <poly id="140065302" type="landuse.residential" color="235,235,227" fill="1" layer="-3.00" shape="563.179319,1405.962690 524.279266,1406.235261 524.611344,1313.004721 539.860485,1312.212053 540.377328,1362.010472 563.710341,1361.960001 563.179319,1405.962690"/>
    <poly id="140065304" type="landuse.commercial" color="209,209,204" fill="1" layer="-3.00" shape="599.675931,1312.773807 556.585807,1312.839353 556.058316,1356.609112 564.000801,1356.494913 563.710341,1361.960001 563.179319,1405.962690 578.274347,1405.755781 578.566886,1361.927030 578.678547,1356.281760 600.138084,1355.892725 599.675931,1312.773807"/>
    <poly id="140065305" type="landuse.residential" color="235,235,227" fill="1" layer="-3.00" shape="649.164878,1312.049815 647.423348,1405.381352 578.274347,1405.755781 578.566886,1361.927030 600.262975,1361.497158 600.138084,1355.892725 599.675931,1312.773807 649.164878,1312.049815"/>
    <poly id="140065306" type="landuse.residential" color="235,235,227" fill="1" layer="-3.00" shape="585.850868,1194.691309 572.992827,1194.576662 572.953711,1240.883193 572.970142,1247.673078 525.791275,1248.043746 524.909572,1290.022037 649.376677,1288.799567 648.930616,1245.226019 585.075180,1245.945926 585.352318,1240.158908 585.850868,1194.691309"/>
    <poly id="140066527" type="landuse.residential" color="235,235,227" fill="1" layer="-3.00" shape="759.837557,1050.851976 759.963750,1012.124051 787.910859,1011.888056 788.267490,996.561227 788.539619,994.146770 789.684698,991.013171 792.611024,990.746367 794.187857,877.598160 792.246994,876.903438 791.911294,875.078963 792.395850,866.965275 792.198042,855.934689 788.118432,852.001714 778.019445,851.850459 770.575428,853.192315 747.568216,853.213902 747.598110,851.217396 682.825824,852.366770 682.544648,854.781094 678.290929,854.595398 670.012156,863.202626 669.652016,919.411456 670.053449,949.593640 676.377862,966.052208 678.694438,965.898276 678.248220,1052.714684 681.718032,1056.760523 754.635809,1055.799746 759.837557,1050.851976"/>
    <poly id="140066528" type="landuse.residential" color="235,235,227" fill="1" layer="-3.00" shape="511.372169,858.156352 654.534272,856.181381 654.289138,953.839790 656.639247,958.723113 510.892654,960.670441 510.917008,954.790892 511.372169,858.156352"/>
    <poly id="140066529" type="landuse.commercial" color="209,209,204" fill="1" layer="-3.00" shape="295.295098,1243.335964 340.640632,1242.969994 340.190599,1248.798808 339.736399,1293.201991 355.078630,1291.644900 355.338948,1249.291242 355.970492,1242.854958 386.427125,1242.854910 385.906982,1199.901602 264.439123,1201.372230 264.477048,1294.319716 294.616128,1293.693352 295.759505,1249.311557 295.295098,1243.335964"/>
    <poly id="140066529#1" type="shop.car_repair" color="237,199,255" fill="1" layer="-1.00" shape="295.295098,1243.335964 340.640632,1242.969994 340.190599,1248.798808 339.736399,1293.201991 355.078630,1291.644900 355.338948,1249.291242 355.970492,1242.854958 386.427125,1242.854910 385.906982,1199.901602 264.439123,1201.372230 264.477048,1294.319716 294.616128,1293.693352 295.759505,1249.311557 295.295098,1243.335964"/>
    <poly id="141448606" type="amenity.social_centre" color="237,199,199" fill="1" layer="-1.00" shape="606.238563,837.031442 657.760483,836.482014 661.303584,833.816956 661.645074,793.405969 605.803088,792.725880 606.238563,837.031442"/>
    <poly id="141571378" type="landuse.commercial" color="209,209,204" fill="1" layer="-3.00" shape="741.488337,612.501134 733.091488,612.608404 733.044384,664.861291 740.344244,664.671034 741.488337,612.501134"/>
    <poly id="141571379" type="landuse.commercial" color="209,209,204" fill="1" layer="-3.00" shape="762.714314,832.084392 763.303287,792.753230 770.441545,792.438547 777.870329,792.117126 792.668971,791.772963 792.004724,831.879595 777.681800,831.975714 769.403777,832.040343 762.714314,832.084392"/>