<?xml version="1.0" encoding="UTF-8"?>

<!-- generated on Fri Sep 20 09:56:42 2019 by Eclipse SUMO duarouter Version 1.2.0
<configuration xmlns:xsi="http://www.w3.org/2001/XMLSchema-instance" xsi:noNamespaceSchemaLocation="http://sumo.dlr.de/xsd/duarouterConfiguration.xsd">

    <input>
        <net-file value="/home/werer/sumo/tools/2019-09-20-09-56-36/osm.net.xml"/>
        <route-files value="/home/werer/sumo/tools/2019-09-20-09-56-36/osm.passenger.trips.xml"/>
    </input>

    <output>
        <output-file value="/home/werer/sumo/tools/2019-09-20-09-56-36/osm.passenger.trips.xml.tmp"/>
        <write-trips value="true"/>
    </output>

    <time>
        <begin value="0"/>
        <end value="3600.0"/>
    </time>

    <report>
        <no-warnings value="true"/>
        <ignore-errors value="true"/>
        <no-step-log value="true"/>
    </report>

</configuration>
-->

<routes xmlns:xsi="http://www.w3.org/2001/XMLSchema-instance" xsi:noNamespaceSchemaLocation="http://sumo.dlr.de/xsd/routes_file.xsd">
    <vType id="veh_passenger" vClass="passenger"/>
    <trip id="veh0" type="veh_passenger" depart="0.00" departLane="best" departSpeed="max" from="426381454" to="-141445208#1"/>
    <trip id="veh1" type="veh_passenger" depart="0.14" departLane="best" from="-523064141#3" to="-531157853#1"/>
    <trip id="veh2" type="veh_passenger" depart="0.28" departLane="best" departSpeed="max" from="531156736#0" to="515071382"/>
    <trip id="veh3" type="veh_passenger" depart="0.43" departLane="best" departSpeed="max" from="542342449" to="-14922678#0"/>
    <trip id="veh4" type="veh_passenger" depart="0.57" departLane="best" departSpeed="max" from="140642348" to="-141445208#1"/>
    <trip id="veh5" type="veh_passenger" depart="0.71" departLane="best" departSpeed="max" from="-522765227#1" to="14920302"/>
    <trip id="veh6" type="veh_passenger" depart="0.85" departLane="best" departSpeed="max" from="-137128692#2" to="-531157853#1"/>
    <trip id="veh7" type="veh_passenger" depart="1.00" departLane="best" departSpeed="max" from="426381454" to="14925871"/>
    <trip id="veh8" type="veh_passenger" depart="1.14" departLane="best" departSpeed="max" from="-522765227#1" to="256516414#0"/>
    <trip id="veh9" type="veh_passenger" depart="1.28" departLane="best" departSpeed="max" from="541418931#0" to="-141406922#0"/>
    <trip id="veh10" type="veh_passenger" depart="1.42" departLane="best" departSpeed="max" from="541418931#0" to="515071382"/>
    <trip id="veh11" type="veh_passenger" depart="1.57" departLane="best" departSpeed="max" from="-530900180" to="-531156736#1"/>
    <trip id="veh12" type="veh_passenger" depart="1.71" departLane="best" departSpeed="max" from="542509854" to="137163565#2"/>
    <trip id="veh13" type="veh_passenger" depart="1.85" departLane="best" departSpeed="max" from="-140637983#1" to="-14922678#0"/>
    <trip id="veh14" type="veh_passenger" depart="1.99" departLane="best" departSpeed="max" from="542181721#0" to="256516414#0"/>
    <trip id="veh15" type="veh_passenger" depart="2.14" departLane="best" departSpeed="max" from="541418931#0" to="522765227#1"/>
    <trip id="veh16" type="veh_passenger" depart="2.28" departLane="best" departSpeed="max" from="-542139426#1" to="14925871"/>
    <trip id="veh17" type="veh_passenger" depart="2.42" departLane="best" departSpeed="max" from="541418934#0" to="256516414#0"/>
    <trip id="veh18" type="veh_passenger" depart="2.56" departLane="best" departSpeed="max" from="542342449" to="256516414#0"/>
    <trip id="veh19" type="veh_passenger" depart="2.71" departLane="best" departSpeed="max" from="527640932" to="-141445208#1"/>
    <trip id="veh20" type="veh_passenger" depart="2.85" departLane="best" departSpeed="max" from="-522765227#1" to="137128692#2"/>
    <trip id="veh21" type="veh_passenger" depart="2.99" departLane="best" departSpeed="max" from="-137163565#2" to="-541418931#0"/>
    <trip id="veh22" type="veh_passenger" depart="3.13" departLane="best" departSpeed="max" from="-140637983#1" to="137128692#2"/>
    <trip id="veh23" type="veh_passenger" depart="3.28" departLane="best" departSpeed="max" from="-542139426#1" to="-531157853#1"/>
    <trip id="veh24" type="veh_passenger" depart="3.42" departLane="best" departSpeed="max" from="-523064119#1" to="542139426#0"/>
    <trip id="veh25" type="veh_passenger" depart="3.56" departLane="best" departSpeed="max" from="-27320247" to="522765227#1"/>
    <trip id="veh26" type="veh_passenger" depart="3.70" departLane="best" departSpeed="max" from="-20532594" to="140267278"/>
    <trip id="veh27" type="veh_passenger" depart="3.85" departLane="best" departSpeed="max" from="542526984#0" to="27320247"/>
    <trip id="veh28" type="veh_passenger" depart="3.99" departLane="best" departSpeed="max" from="27362393#0" to="515071382"/>
    <trip id="veh29" type="veh_passenger" depart="4.13" departLane="best" departSpeed="max" from="-522765227#1" to="-141445208#1"/>
    <trip id="veh30" type="veh_passenger" depart="4.27" departLane="best" departSpeed="max" from="-529598125#1" to="-541421950#1"/>
    <trip id="veh31" type="veh_passenger" depart="4.41" departLane="best" departSpeed="max" from="-277481379#7" to="542528138#1"/>
    <trip id="veh32" type="veh_passenger" depart="4.56" departLane="best" departSpeed="max" from="542342449" to="137128700#11"/>
    <trip id="veh33" type="veh_passenger" depart="4.70" departLane="best" departSpeed="max" from="426381454" to="140637983#0"/>
    <trip id="veh34" type="veh_passenger" depart="4.84" departLane="best" departSpeed="max" from="-523064119#1" to="-541418931#0"/>
    <trip id="veh35" type="veh_passenger" depart="4.98" departLane="best" departSpeed="max" from="27362393#0" to="-541418934#0"/>
    <trip id="veh36" type="veh_passenger" depart="5.13" departLane="best" departSpeed="max" from="426381454" to="531156734#0"/>
    <trip id="veh37" type="veh_passenger" depart="5.27" departLane="best" departSpeed="max" from="-542528138#1" to="-531157853#1"/>
    <trip id="veh38" type="veh_passenger" depart="5.41" departLane="best" departSpeed="max" from="542526984#0" to="14920302"/>
    <trip id="veh39" type="veh_passenger" depart="5.55" departLane="best" departSpeed="max" from="-140637983#1" to="-141445208#1"/>
    <trip id="veh40" type="veh_passenger" depart="5.70" departLane="best" departSpeed="max" from="-140637983#1" to="256516414#0"/>
    <trip id="veh41" type="veh_passenger" depart="5.84" departLane="best" departSpeed="max" from="541418931#0" to="140637983#0"/>
    <trip id="veh42" type="veh_passenger" depart="5.98" departLane="best" departSpeed="max" from="-137163565#2" to="140267278"/>
    <trip id="veh43" type="veh_passenger" depart="6.12" departLane="best" departSpeed="max" from="542526984#0" to="14925871"/>
    <trip id="veh44" type="veh_passenger" depart="6.27" departLane="best" departSpeed="max" from="542526984#0" to="529598125#0"/>
    <trip id="veh45" type="veh_passenger" depart="6.41" departLane="best" departSpeed="max" from="-137128692#2" to="522765227#1"/>
    <trip id="veh46" type="veh_passenger" depart="6.55" departLane="best" departSpeed="max" from="-523064119#1" to="27320247"/>
    <trip id="veh47" type="veh_passenger" depart="6.69" departLane="best" departSpeed="max" from="-140637983#1" to="140642346"/>
    <trip id="veh48" type="veh_passenger" depart="6.84" departLane="best" departSpeed="max" from="141445208#0" to="542528138#1"/>
    <trip id="veh49" type="veh_passenger" depart="6.98" departLane="best" departSpeed="max" from="542342449" to="-541418934#0"/>
    <trip id="veh50" type="veh_passenger" depart="7.12" departLane="best" departSpeed="max" from="542344471" to="529598125#0"/>
    <trip id="veh51" type="veh_passenger" depart="7.26" departLane="best" departSpeed="max" from="426381454" to="-531156736#1"/>
    <trip id="veh52" type="veh_passenger" depart="7.41" departLane="best" departSpeed="max" from="531157853#0" to="14925871"/>
    <trip id="veh53" type="veh_passenger" depart="7.55" departLane="best" departSpeed="max" from="531157853#0" to="14925871"/>
    <trip id="veh54" type="veh_passenger" depart="7.69" departLane="best" from="-137128682#5" to="137128700#11"/>
    <trip id="veh55" type="veh_passenger" depart="7.83" departLane="best" departSpeed="max" from="-137128692#2" to="542139426#0"/>
    <trip id="veh56" type="veh_passenger" depart="7.97" departLane="best" departSpeed="max" from="542342449" to="527640938"/>
    <trip id="veh57" type="veh_passenger" depart="8.12" departLane="best" departSpeed="max" from="-529598125#1" to="-141445208#1"/>
    <trip id="veh58" type="veh_passenger" depart="8.26" departLane="best" departSpeed="max" from="542342449" to="542528138#1"/>
    <trip id="veh59" type="veh_passenger" depart="8.40" departLane="best" departSpeed="max" from="-140637983#1" to="141436091#0"/>
    <trip id="veh60" type="veh_passenger" depart="8.54" departLane="best" departSpeed="max" from="-137163565#2" to="523064119#1"/>
    <trip id="veh61" type="veh_passenger" depart="8.69" departLane="best" departSpeed="max" from="531157853#0" to="-531143928#1"/>
    <trip id="veh62" type="veh_passenger" depart="8.83" departLane="best" departSpeed="max" from="141445208#0" to="14925871"/>
    <trip id="veh63" type="veh_passenger" depart="8.97" departLane="best" departSpeed="max" from="-523064119#1" to="529598125#0"/>
    <trip id="veh64" type="veh_passenger" depart="9.11" departLane="best" departSpeed="max" from="140642348" to="-531157853#1"/>
    <trip id="veh65" type="veh_passenger" depart="9.26" departLane="best" departSpeed="max" from="27320271" to="522765227#1"/>
    <trip id="veh66" type="veh_passenger" depart="9.40" departLane="best" departSpeed="max" from="-277481379#7" to="137128700#11"/>
    <trip id="veh67" type="veh_passenger" depart="9.54" departLane="best" departSpeed="max" from="542526984#0" to="27320247"/>
    <trip id="veh68" type="veh_passenger" depart="9.68" departLane="best" departSpeed="max" from="141406922#0" to="14925871"/>
    <trip id="veh69" type="veh_passenger" depart="9.83" departLane="best" departSpeed="max" from="-530900180" to="256516414#0"/>
    <trip id="veh70" type="veh_passenger" depart="9.97" departLane="best" departSpeed="max" from="-522765227#1" to="-531157853#1"/>
    <trip id="veh71" type="veh_passenger" depart="10.11" departLane="best" departSpeed="max" from="-137163565#2" to="256516414#0"/>
    <trip id="veh72" type="veh_passenger" depart="10.25" departLane="best" departSpeed="max" from="-522765227#1" to="542131418"/>
    <trip id="veh73" type="veh_passenger" depart="10.40" departLane="best" departSpeed="max" from="542342449" to="-14916701#2"/>
    <trip id="veh74" type="veh_passenger" depart="10.54" departLane="best" departSpeed="max" from="-523064119#1" to="277481379#7"/>
    <trip id="veh75" type="veh_passenger" depart="10.68" departLane="best" departSpeed="max" from="-522765227#1" to="-531156736#1"/>
    <trip id="veh76" type="veh_passenger" depart="10.82" departLane="best" departSpeed="max" from="542344471" to="20532594"/>
    <trip id="veh77" type="veh_passenger" depart="10.97" departLane="best" departSpeed="max" from="541418931#0" to="-531157853#1"/>
    <trip id="veh78" type="veh_passenger" depart="11.11" departLane="best" departSpeed="max" from="-140637983#1" to="140642346"/>
    <trip id="veh79" type="veh_passenger" depart="11.25" departLane="best" departSpeed="max" from="140642348" to="141436091#0"/>
    <trip id="veh80" type="veh_passenger" depart="11.39" departLane="best" departSpeed="max" from="531156736#0" to="426381448"/>
    <trip id="veh81" type="veh_passenger" depart="11.54" departLane="best" departSpeed="max" from="542526984#0" to="-14922678#0"/>
    <trip id="veh82" type="veh_passenger" depart="11.68" departLane="best" departSpeed="max" from="-542528138#1" to="137163565#2"/>
    <trip id="veh83" type="veh_passenger" depart="11.82" departLane="best" departSpeed="max" from="542342449" to="-541418934#0"/>
    <trip id="veh84" type="veh_passenger" depart="11.96" departLane="best" from="-27320356#1" to="140642346"/>
    <trip id="veh85" type="veh_passenger" depart="12.10" departLane="best" departSpeed="max" from="140642348" to="137128692#2"/>
    <trip id="veh86" type="veh_passenger" depart="12.25" departLane="best" departSpeed="max" from="-523064119#1" to="542139426#0"/>
    <trip id="veh87" type="veh_passenger" depart="12.39" departLane="best" departSpeed="max" from="141406922#0" to="529598125#0"/>
    <trip id="veh88" type="veh_passenger" depart="12.53" departLane="best" departSpeed="max" from="27320271" to="-141445208#1"/>
    <trip id="veh89" type="veh_passenger" depart="12.67" departLane="best" departSpeed="max" from="542526984#0" to="527640938"/>
    <trip id="veh90" type="veh_passenger" depart="12.82" departLane="best" departSpeed="max" from="542526984#0" to="542139426#0"/>
    <trip id="veh91" type="veh_passenger" depart="12.96" departLane="best" departSpeed="max" from="542181721#0" to="-531156736#1"/>
    <trip id="veh92" type="veh_passenger" depart="13.10" departLane="best" departSpeed="max" from="141445208#0" to="-531157853#1"/>
    <trip id="veh93" type="veh_passenger" depart="13.24" departLane="best" departSpeed="max" from="-542528138#1" to="-141445208#1"/>
    <trip id="veh94" type="veh_passenger" depart="13.39" departLane="best" departSpeed="max" from="-542139426#1" to="97190361#0"/>
    <trip id="veh95" type="veh_passenger" depart="13.53" departLane="best" departSpeed="max" from="141445208#0" to="140637983#0"/>
    <trip id="veh96" type="veh_passenger" depart="13.67" departLane="best" departSpeed="max" from="542509854" to="97190361#0"/>
    <trip id="veh97" type="veh_passenger" depart="13.81" departLane="best" from="27320272#6" to="522765227#1"/>
    <trip id="veh98" type="veh_passenger" depart="13.96" departLane="best" departSpeed="max" from="27320271" to="522765227#1"/>
    <trip id="veh99" type="veh_passenger" depart="14.10" departLane="best" departSpeed="max" from="-137128700#11" to="256516414#0"/>
    <trip id="veh100" type="veh_passenger" depart="14.24" departLane="best" departSpeed="max" from="14916701#0" to="529598125#0"/>
    <trip id="veh101" type="veh_passenger" depart="14.38" departLane="best" departSpeed="max" from="-20532594" to="97190361#0"/>
    <trip id="veh102" type="veh_passenger" depart="14.53" departLane="best" departSpeed="max" from="-137163565#2" to="-531156736#1"/>
    <trip id="veh103" type="veh_passenger" depart="14.67" departLane="best" departSpeed="max" from="426381454" to="428464201#0"/>
    <trip id="veh104" type="veh_passenger" depart="14.81" departLane="best" departSpeed="max" from="-523064119#1" to="-27362393#0"/>
    <trip id="veh105" type="veh_passenger" depart="14.95" departLane="best" departSpeed="max" from="542342449" to="-541418931#0"/>
    <trip id="veh106" type="veh_passenger" depart="15.10" departLane="best" departSpeed="max" from="140642348" to="256516414#0"/>
    <trip id="veh107" type="veh_passenger" depart="15.24" departLane="best" departSpeed="max" from="14922678#0" to="542139426#0"/>
    <trip id="veh108" type="veh_passenger" depart="15.38" departLane="best" departSpeed="max" from="-277481379#7" to="522765227#1"/>
    <trip id="veh109" type="veh_passenger" depart="15.52" departLane="best" departSpeed="max" from="-523064119#1" to="140637983#0"/>
    <trip id="veh110" type="veh_passenger" depart="15.67" departLane="best" departSpeed="max" from="527640932" to="137128692#2"/>
    <trip id="veh111" type="veh_passenger" depart="15.81" departLane="best" departSpeed="max" from="-529598125#1" to="522765227#1"/>
    <trip id="veh112" type="veh_passenger" depart="15.95" departLane="best" departSpeed="max" from="-137163565#2" to="141436091#0"/>
    <trip id="veh113" type="veh_passenger" depart="16.09" departLane="best" departSpeed="max" from="542526984#0" to="97190361#0"/>
    <trip id="veh114" type="veh_passenger" depart="16.23" departLane="best" departSpeed="max" from="-137163565#2" to="-531157853#1"/>
    <trip id="veh115" type="veh_passenger" depart="16.38" departLane="best" departSpeed="max" from="-523064119#1" to="542139426#0"/>
    <trip id="veh116" type="veh_passenger" depart="16.52" departLane="best" departSpeed="max" from="542342449" to="530900180"/>
    <trip id="veh117" type="veh_passenger" depart="16.66" departLane="best" from="542139425#0" to="515071382"/>
    <trip id="veh118" type="veh_passenger" depart="16.80" departLane="best" departSpeed="max" from="426381454" to="97190361#0"/>
    <trip id="veh119" type="veh_passenger" depart="16.95" departLane="best" departSpeed="max" from="426381454" to="-141406922#0"/>
    <trip id="veh120" type="veh_passenger" depart="17.09" departLane="best" departSpeed="max" from="541418934#0" to="137128692#2"/>
    <trip id="veh121" type="veh_passenger" depart="17.23" departLane="best" from="523064133#0" to="542139426#0"/>
    <trip id="veh122" type="veh_passenger" depart="17.37" departLane="best" departSpeed="max" from="-14920302" to="-27362393#0"/>
    <trip id="veh123" type="veh_passenger" depart="17.52" departLane="best" departSpeed="max" from="-523064119#1" to="256516414#0"/>
    <trip id="veh124" type="veh_passenger" depart="17.66" departLane="best" departSpeed="max" from="531156736#0" to="-531157853#1"/>
    <trip id="veh125" type="veh_passenger" depart="17.80" departLane="best" departSpeed="max" from="426381454" to="-541418934#0"/>
    <trip id="veh126" type="veh_passenger" depart="17.94" departLane="best" departSpeed="max" from="141445208#0" to="542131418"/>
    <trip id="veh127" type="veh_passenger" depart="18.09" departLane="best" departSpeed="max" from="542181721#0" to="-14922678#0"/>
    <trip id="veh128" type="veh_passenger" depart="18.23" departLane="best" departSpeed="max" from="140642348" to="137128692#2"/>
    <trip id="veh129" type="veh_passenger" depart="18.37" departLane="best" departSpeed="max" from="-137128692#2" to="523064119#1"/>
    <trip id="veh130" type="veh_passenger" depart="18.51" departLane="best" departSpeed="max" from="426381454" to="-541418934#0"/>
    <trip id="veh131" type="veh_passenger" depart="18.66" departLane="best" departSpeed="max" from="531156736#0" to="14925871"/>
    <trip id="veh132" type="veh_passenger" depart="18.80" departLane="best" departSpeed="max" from="-137163565#2" to="530900180"/>
    <trip id="veh133" type="veh_passenger" depart="18.94" departLane="best" departSpeed="max" from="542344471" to="14925871"/>
    <trip id="veh134" type="veh_passenger" depart="19.08" departLane="best" departSpeed="max" from="542181721#0" to="256516414#0"/>
    <trip id="veh135" type="veh_passenger" depart="19.23" departLane="best" from="-14927985#12" to="-529598129"/>
    <trip id="veh136" type="veh_passenger" depart="19.37" departLane="best" departSpeed="max" from="541418931#0" to="529598125#0"/>
    <trip id="veh137" type="veh_passenger" depart="19.51" departLane="best" departSpeed="max" from="542344471" to="-531157853#1"/>
    <trip id="veh138" type="veh_passenger" depart="19.65" departLane="best" departSpeed="max" from="-523064119#1" to="-14927985#12"/>
    <trip id="veh139" type="veh_passenger" depart="19.80" departLane="best" departSpeed="max" from="531157853#0" to="530900180"/>
    <trip id="veh140" type="veh_passenger" depart="19.94" departLane="best" departSpeed="max" from="140642348" to="256516414#0"/>
    <trip id="veh141" type="veh_passenger" depart="20.08" departLane="best" departSpeed="max" from="-20532594" to="542139426#0"/>
    <trip id="veh142" type="veh_passenger" depart="20.22" departLane="best" departSpeed="max" from="-137128692#2" to="522765227#1"/>
    <trip id="veh143" type="veh_passenger" depart="20.36" departLane="best" departSpeed="max" from="-530900180" to="542139426#0"/>
    <trip id="veh144" type="veh_passenger" depart="20.51" departLane="best" departSpeed="max" from="541418931#0" to="529598125#0"/>
    <trip id="veh145" type="veh_passenger" depart="20.65" departLane="best" departSpeed="max" from="541418931#0" to="-541418934#0"/>
    <trip id="veh146" type="veh_passenger" depart="20.79" departLane="best" departSpeed="max" from="531157853#0" to="-27362393#0"/>
    <trip id="veh147" type="veh_passenger" depart="20.93" departLane="best" departSpeed="max" from="542342449" to="529598125#0"/>
    <trip id="veh148" type="veh_passenger" depart="21.08" departLane="best" departSpeed="max" from="-522765227#1" to="527640938"/>
    <trip id="veh149" type="veh_passenger" depart="21.22" departLane="best" departSpeed="max" from="141445208#0" to="137128692#2"/>
    <trip id="veh150" type="veh_passenger" depart="21.36" departLane="best" departSpeed="max" from="-137128692#2" to="-531157853#1"/>
    <trip id="veh151" type="veh_passenger" depart="21.50" departLane="best" departSpeed="max" from="-530900180" to="529598125#0"/>
    <trip id="veh152" type="veh_passenger" depart="21.65" departLane="best" departSpeed="max" from="542526984#0" to="137128692#2"/>
    <trip id="veh153" type="veh_passenger" depart="21.79" departLane="best" departSpeed="max" from="426381454" to="140637983#0"/>
    <trip id="veh154" type="veh_passenger" depart="21.93" departLane="best" departSpeed="max" from="542526984#0" to="14925871"/>
    <trip id="veh155" type="veh_passenger" depart="22.07" departLane="best" departSpeed="max" from="542509854" to="-27362393#0"/>
    <trip id="veh156" type="veh_passenger" depart="22.22" departLane="best" departSpeed="max" from="542526984#0" to="-531156736#1"/>
    <trip id="veh157" type="veh_passenger" depart="22.36" departLane="best" departSpeed="max" from="542526984#0" to="-541418934#0"/>
    <trip id="veh158" type="veh_passenger" depart="22.50" departLane="best" departSpeed="max" from="-140637983#1" to="140642346"/>
    <trip id="veh159" type="veh_passenger" depart="22.64" departLane="best" departSpeed="max" from="531156736#0" to="137128700#11"/>
    <trip id="veh160" type="veh_passenger" depart="22.79" departLane="best" departSpeed="max" from="426381454" to="14920302"/>
    <trip id="veh161" type="veh_passenger" depart="22.93" departLane="best" departSpeed="max" from="-542528138#1" to="256516414#0"/>
    <trip id="veh162" type="veh_passenger" depart="23.07" departLane="best" departSpeed="max" from="-523064119#1" to="515071382"/>
    <trip id="veh163" type="veh_passenger" depart="23.21" departLane="best" departSpeed="max" from="-137128692#2" to="542139426#0"/>
    <trip id="veh164" type="veh_passenger" depart="23.36" departLane="best" departSpeed="max" from="27320271" to="522765227#1"/>
    <trip id="veh165" type="veh_passenger" depart="23.50" departLane="best" departSpeed="max" from="531156736#0" to="277481379#7"/>
    <trip id="veh166" type="veh_passenger" depart="23.64" departLane="best" from="523065174#0" to="137163565#2"/>
    <trip id="veh167" type="veh_passenger" depart="23.78" departLane="best" departSpeed="max" from="531156736#0" to="137128692#2"/>
    <trip id="veh168" type="veh_passenger" depart="23.92" departLane="best" departSpeed="max" from="-542528138#1" to="137128692#2"/>
    <trip id="veh169" type="veh_passenger" depart="24.07" departLane="best" departSpeed="max" from="-14920302" to="140637983#0"/>
    <trip id="veh170" type="veh_passenger" depart="24.21" departLane="best" departSpeed="max" from="542509854" to="515071382"/>
    <trip id="veh171" type="veh_passenger" depart="24.35" departLane="best" departSpeed="max" from="-529598125#1" to="14925871"/>
    <trip id="veh172" type="veh_passenger" depart="24.49" departLane="best" from="-137128682#2" to="137128692#2"/>
    <trip id="veh173" type="veh_passenger" depart="24.64" departLane="best" departSpeed="max" from="141406922#0" to="256516414#0"/>
    <trip id="veh174" type="veh_passenger" depart="24.78" departLane="best" departSpeed="max" from="141406922#0" to="-531157853#1"/>
    <trip id="veh175" type="veh_passenger" depart="24.92" departLane="best" departSpeed="max" from="141445208#0" to="542131418"/>
    <trip id="veh176" type="veh_passenger" depart="25.06" departLane="best" departSpeed="max" from="541418931#0" to="-531156736#1"/>
    <trip id="veh177" type="veh_passenger" depart="25.21" departLane="best" departSpeed="max" from="-140637983#1" to="14925871"/>
    <trip id="veh178" type="veh_passenger" depart="25.35" departLane="best" departSpeed="max" from="426381454" to="137163565#2"/>
    <trip id="veh179" type="veh_passenger" depart="25.49" departLane="best" departSpeed="max" from="541418934#0" to="522765227#1"/>
    <trip id="veh180" type="veh_passenger" depart="25.63" departLane="best" departSpeed="max" from="527640932" to="-531157853#1"/>
    <trip id="veh181" type="veh_passenger" depart="25.78" departLane="best" departSpeed="max" from="-277481379#7" to="-141445208#1"/>
    <trip id="veh182" type="veh_passenger" depart="25.92" departLane="best" departSpeed="max" from="-523064119#1" to="141436091#0"/>
    <trip id="veh183" type="veh_passenger" depart="26.06" departLane="best" departSpeed="max" from="542181721#0" to="-14916701#2"/>
    <trip id="veh184" type="veh_passenger" depart="26.20" departLane="best" departSpeed="max" from="140642348" to="256516414#0"/>
    <trip id="veh185" type="veh_passenger" depart="26.35" departLane="best" departSpeed="max" from="-277481379#7" to="515071382"/>
    <trip id="veh186" type="veh_passenger" depart="26.49" departLane="best" departSpeed="max" from="14916701#0" to="-541418931#0"/>
    <trip id="veh187" type="veh_passenger" depart="26.63" departLane="best" departSpeed="max" from="426381454" to="-141406922#0"/>
    <trip id="veh188" type="veh_passenger" depart="26.77" departLane="best" departSpeed="max" from="531157853#0" to="523064119#1"/>
    <trip id="veh189" type="veh_passenger" depart="26.92" departLane="best" departSpeed="max" from="-27320247" to="542528138#1"/>
    <trip id="veh190" type="veh_passenger" depart="27.06" departLane="best" departSpeed="max" from="14922678#0" to="-141445208#1"/>
    <trip id="veh191" type="veh_passenger" depart="27.20" departLane="best" departSpeed="max" from="-523064119#1" to="529598125#0"/>
    <trip id="veh192" type="veh_passenger" depart="27.34" departLane="best" departSpeed="max" from="527640932" to="97190361#0"/>
    <trip id="veh193" type="veh_passenger" depart="27.49" departLane="best" departSpeed="max" from="426381454" to="542528138#1"/>
    <trip id="veh194" type="veh_passenger" depart="27.63" departLane="best" departSpeed="max" from="542342449" to="256516414#0"/>
    <trip id="veh195" type="veh_passenger" depart="27.77" departLane="best" departSpeed="max" from="531156736#0" to="14920302"/>
    <trip id="veh196" type="veh_passenger" depart="27.91" departLane="best" departSpeed="max" from="541418934#0" to="14925871"/>
    <trip id="veh197" type="veh_passenger" depart="28.05" departLane="best" departSpeed="max" from="542344471" to="522765227#1"/>
    <trip id="veh198" type="veh_passenger" depart="28.20" departLane="best" departSpeed="max" from="141445208#0" to="-541418934#0"/>
    <trip id="veh199" type="veh_passenger" depart="28.34" departLane="best" departSpeed="max" from="-523064119#1" to="27320247"/>
    <trip id="veh200" type="veh_passenger" depart="28.48" departLane="best" departSpeed="max" from="531157853#0" to="14925871"/>
    <trip id="veh201" type="veh_passenger" depart="28.62" departLane="best" departSpeed="max" from="426381454" to="137128692#2"/>
    <trip id="veh202" type="veh_passenger" depart="28.77" departLane="best" departSpeed="max" from="-523064119#1" to="137128700#11"/>
    <trip id="veh203" type="veh_passenger" depart="28.91" departLane="best" departSpeed="max" from="27320271" to="-531156736#1"/>
    <trip id="veh204" type="veh_passenger" depart="29.05" departLane="best" departSpeed="max" from="-522765227#1" to="515071382"/>
    <trip id="veh205" type="veh_passenger" depart="29.19" departLane="best" from="529598127" to="-14916701#2"/>
    <trip id="veh206" type="veh_passenger" depart="29.34" departLane="best" departSpeed="max" from="140642348" to="-531157853#1"/>
    <trip id="veh207" type="veh_passenger" depart="29.48" departLane="best" departSpeed="max" from="426381454" to="515071382"/>
    <trip id="veh208" type="veh_passenger" depart="29.62" departLane="best" departSpeed="max" from="542342449" to="523064119#1"/>
    <trip id="veh209" type="veh_passenger" depart="29.76" departLane="best" departSpeed="max" from="-530900180" to="522765227#1"/>
    <trip id="veh210" type="veh_passenger" depart="29.91" departLane="best" departSpeed="max" from="542181721#0" to="542528138#1"/>
    <trip id="veh211" type="veh_passenger" depart="30.05" departLane="best" departSpeed="max" from="140642348" to="522765227#1"/>
    <trip id="veh212" type="veh_passenger" depart="30.19" departLane="best" departSpeed="max" from="27320271" to="256516414#0"/>
    <trip id="veh213" type="veh_passenger" depart="30.33" departLane="best" departSpeed="max" from="-522765227#1" to="-531157853#1"/>
    <trip id="veh214" type="veh_passenger" depart="30.48" departLane="best" departSpeed="max" from="-530900180" to="515071382"/>
    <trip id="veh215" type="veh_passenger" depart="30.62" departLane="best" from="137128689#0" to="-531156736#1"/>
    <trip id="veh217" type="veh_passenger" depart="30.90" departLane="best" departSpeed="max" from="426381454" to="-141445208#1"/>
    <trip id="veh218" type="veh_passenger" depart="31.05" departLane="best" departSpeed="max" from="-542528138#1" to="20532594"/>
    <trip id="veh219" type="veh_passenger" depart="31.19" departLane="best" departSpeed="max" from="-137128692#2" to="27320247"/>
    <trip id="veh220" type="veh_passenger" depart="31.33" departLane="best" departSpeed="max" from="-14920302" to="141436091#0"/>
    <trip id="veh221" type="veh_passenger" depart="31.47" departLane="best" departSpeed="max" from="-137128700#11" to="140267278"/>
    <trip id="veh222" type="veh_passenger" depart="31.62" departLane="best" departSpeed="max" from="-277481379#7" to="137128700#11"/>
    <trip id="veh223" type="veh_passenger" depart="31.76" departLane="best" departSpeed="max" from="531157853#0" to="140267278"/>