<?xml version="1.0" encoding="UTF-8"?>

<!-- generated on Tue Aug 27 10:19:20 2019 by Eclipse SUMO polyconvert Version 1.2.0
<configuration xmlns:xsi="http://www.w3.org/2001/XMLSchema-instance" xsi:noNamespaceSchemaLocation="http://sumo.dlr.de/xsd/polyconvertConfiguration.xsd">

    <input>
        <net-file value="osm.net.xml"/>
        <osm-files value="osm_bbox.osm.xml"/>
        <osm.keep-full-type value="true"/>
        <type-file value="/usr/share/sumo/data/typemap/osmPolyconvert.typ.xml"/>
    </input>

    <output>
        <output-file value="osm.poly.xml"/>
    </output>

    <processing>
        <poi-layer-offset value="5"/>
    </processing>

    <report>
        <verbose value="true"/>
    </report>

</configuration>
-->

<additional xmlns:xsi="http://www.w3.org/2001/XMLSchema-instance" xsi:noNamespaceSchemaLocation="http://sumo.dlr.de/xsd/additional_file.xsd">
    <location netOffset="-722085.65,-5012972.46" convBoundary="-2175.24,-0.00,23977.52,5032.06" origBoundary="11.803675,45.228555,12.134520,45.280304" projParameter="+proj=utm +zone=32 +ellps=WGS84 +datum=WGS84 +units=m +no_defs"/>

    <poly id="113381007" type="leisure.playground" color="207,245,201" fill="1" layer="-2.00" shape="2208.432473,4030.092697 2191.575130,3962.644547 2126.028833,3981.108389 2127.753645,4055.594378 2208.432473,4030.092697"/>
    <poly id="113381009" type="amenity.parking" color="184,184,179" fill="1" layer="-1.00" shape="2487.533917,3678.432934 2479.217452,3655.835574 2399.157145,3683.213732 2401.701987,3688.965783 2348.946364,3706.124315 2350.052757,3726.730286 2487.533917,3678.432934"/>
    <poly id="113381010" type="amenity.parking" color="184,184,179" fill="1" layer="-1.00" shape="2210.303113,4026.955612 2261.349907,4014.262597 2252.598962,3979.336812 2230.569833,3984.817354 2223.641965,3957.164111 2220.384830,3957.982874 2219.497480,3954.436476 2222.476911,3953.696844 2218.562212,3938.074531 2201.818376,3942.241107 2192.605246,3905.497094 2180.616067,3908.475407 2210.303113,4026.955612"/>
    <poly id="123082897" type="waterway.canal" color="181,209,209" fill="0" layer="-4.00" shape="2591.038284,3851.572229 2602.109449,3859.184675 2613.581041,3870.114961"/>
    <poly id="245198975" type="waterway.canal" color="181,209,209" fill="0" layer="-4.00" shape="2613.581041,3870.114961 2632.634553,3896.219861 2665.808863,3940.690716 2716.310460,3984.020515 2754.097147,4011.403868 2795.862044,4027.627826 2823.476785,4050.823374 2879.962314,4073.822965 2937.793798,4082.611031 3010.164482,4085.187824 3112.237471,4082.094029 3153.683542,4077.697702 3211.579599,4048.971850 3249.741599,4030.732974 3324.667100,4009.044438 3377.266336,3999.163047 3428.523385,3998.288549 3484.615912,3990.890797 3608.284615,3972.135303 3637.620446,3976.542031 3686.128559,3986.672504 3709.790946,3984.992704 3769.646657,3966.597419 3848.562260,3945.435655 3894.304830,3938.672639 3943.809922,3944.647232 4005.937016,3951.062533 4070.080464,3948.318203 4152.197706,3937.819632 4254.456248,3906.208056 4333.293505,3869.554469 4404.321288,3839.340524 4523.537731,3804.981419 4595.376365,3775.643949 4692.738802,3739.658887 4771.826207,3719.815808 4850.006719,3701.620766 4924.980564,3679.117963 5074.914723,3634.103294 5149.688161,3616.790503 5179.468502,3609.307037 5241.933230,3592.008888 5284.166392,3580.312945 5361.851062,3552.862519 5475.421254,3511.598833 5567.228074,3489.698099 5681.943749,3463.596091 5744.709588,3452.420380 5829.031211,3451.254875 5895.889392,3443.587480 5997.765365,3446.416568 6118.042637,3429.766624 6172.331846,3419.957649 6208.983573,3408.689080 6230.691130,3390.985507 6263.464599,3346.818118 6347.717219,3277.613661 6450.692336,3209.264879 6464.563570,3202.146576 6478.569715,3196.512624 6493.125687,3191.098803 6508.192125,3186.993812 6526.504418,3183.284307 6996.661121,3099.464770 7172.100738,3062.596603 7204.740387,3057.450714 7250.800262,3052.246661 7291.623698,3047.598268 7321.811838,3043.120453 7347.566620,3038.281686 7365.074305,3031.664289 7404.996505,3011.811102 7543.952840,2945.452367 7580.785561,2929.147741 7620.626581,2923.030741 7740.820997,2908.921531 7833.463546,2887.917094 7903.162971,2871.975089 7955.727641,2840.282059 7977.396138,2800.746506 7994.981455,2757.703051 8030.999693,2694.328576 8054.027721,2640.559700 8075.529818,2582.530541 8090.543801,2563.754890 8103.321381,2560.015158 8169.063198,2583.410243 8194.320441,2584.329898 8208.929681,2576.463383 8235.668196,2559.794715 8266.284088,2552.511302 8309.725194,2549.677601 8343.827547,2547.627424 8369.913683,2548.444485 8386.312985,2550.755187 8404.300144,2555.415321 8426.522240,2563.088706 8441.926829,2564.451140 8454.775535,2563.940618 8590.997437,2547.538977 8656.305888,2536.483815 8727.712027,2543.283255 8777.226291,2549.295429 8862.218729,2553.244087 8940.410238,2558.614033 8979.703452,2567.613862 9121.376569,2627.610716 9152.877472,2642.567328 9187.130595,2662.396944 9218.281407,2682.191157 9300.990063,2725.541346 9377.436388,2778.752947 9483.049259,2817.904918 9555.792876,2834.007016 9658.405276,2840.291851 9763.905604,2836.594730 9845.682579,2836.234097 9911.114729,2821.825843 10002.142240,2799.124597 10099.964074,2774.994335 10171.290083,2760.805083 10223.629246,2735.851764 10253.472170,2705.622644 10398.123396,2575.068731 10451.328967,2526.621434 10514.319278,2464.239875 10542.836918,2445.120711 10618.720798,2421.870764 10696.908169,2404.580024 10765.813733,2387.793914 10865.487207,2359.538031 10950.253985,2346.697595 11003.885326,2332.710708 11079.827002,2307.777308 11106.617662,2301.044833 11128.847863,2295.890805 11196.722946,2285.389768 11225.847264,2275.896054 11306.973532,2218.896237 11324.093369,2214.900318 11436.591529,2253.393482 11469.219663,2259.893406 11542.588554,2267.898287 11602.587895,2262.394632 11646.964045,2245.901836 11720.960120,2207.399067 11774.715049,2195.903774 11929.585367,2130.402980 11987.079956,2109.402989 12022.206911,2101.903698 12056.083742,2104.403585 12068.704270,2109.898982 12220.076828,2195.399705 12280.324044,2203.405394 12398.324841,2194.896948 12546.697174,2170.908560 12972.938295,2143.405209 13009.064862,2135.903958 13163.179780,2086.745994 13192.369333,2075.205424 13341.018016,2013.388817 13524.332582,1965.704321 13967.670893,1850.919092 14027.423561,1839.410316 14105.667772,1838.415517 14160.171037,1830.917057 14213.795051,1807.411286 14355.289874,1728.918980 14401.040919,1723.921029 14467.412487,1701.917302 14505.786301,1701.917300 14575.163785,1731.923541 14651.034629,1716.918501 14743.281620,1652.421918 14783.405217,1618.925952 14808.278389,1584.925863 14819.907704,1560.419837 14863.532496,1438.925741 14866.534872,1398.422004 14849.281289,1239.427258 14855.780048,1213.427540 14866.282076,1203.931016 14993.528355,1119.933978 15074.531038,1080.428873 15170.850349,1043.512619 15192.073309,1037.377771 15225.463499,1030.809347 15354.775412,1012.432214 15472.519892,973.932558 15490.396106,975.938704 15597.143050,1030.431823 15803.640936,1088.932399 15851.013794,1088.433119 15899.516540,1070.432879 15930.763361,1045.442699 15942.514735,1024.936758 15979.383424,923.441596 16006.889908,829.937910 16072.513052,683.946773 16108.513400,658.446459 16258.761652,598.945574 16295.261253,591.943398 16351.380525,597.450728 16399.379485,619.451063 16424.253503,636.441701 16443.631259,662.447780 16455.625304,732.942050 16463.256505,751.941754 16482.880639,774.942446 16549.502438,772.448347 16588.001800,760.761866 16871.500422,726.015926 16894.412266,725.824305 16916.438416,727.023304 16934.701261,730.049344 16970.947669,737.459400 16996.125680,740.324119 17022.926363,741.848511 17081.569535,741.895335 17092.423333,743.173318 17102.941396,746.263121 17110.470569,750.029831 17117.106951,754.541550 17124.772206,761.361661 17187.751211,820.936193 17221.611069,849.450564 17271.863328,872.444214 17307.484733,874.948774 17345.608406,868.447980 17397.484858,843.944783 17536.063722,737.128848 17555.399296,726.769430 17575.539444,723.393672 17934.967125,694.619069 17946.986382,690.869696 17955.398487,684.613875 18000.246247,621.934479 18012.108330,608.244568 18025.719984,596.300945 18040.845571,586.306057 18057.186656,578.459964 18074.454752,572.907482 18092.315961,569.747196 18110.445493,569.044662 18125.584851,569.875188 18132.907140,568.317496 18138.328755,564.440395 18160.972677,504.456915 18178.970333,484.458654 18195.844519,476.455126 18220.099145,470.956905 18368.843954,465.459466 18686.710061,466.464339 18761.122577,467.226583 18895.065737,476.019118 19382.119283,521.418426 19589.707155,535.839777 19791.191294,561.460374 20154.961382,638.410866 20852.298160,795.967322 20920.916403,806.957282 20940.173134,804.959958 21292.287680,738.467198 21593.782010,615.973816 21746.155842,549.971914 21875.599148,424.702407 21880.783778,420.518793 21886.237724,416.690458 21891.936582,413.238713 21897.848524,410.173456 21903.964843,407.516606 21910.238441,405.266345 21916.652760,403.444287 21923.175974,402.060333 21929.916978,400.940670 22704.403875,301.525097 22730.760720,299.974551 22839.385062,301.974427 23301.279243,240.283751 23431.503101,221.981062 23977.519526,148.782806"/>
    <poly id="245199953" type="waterway.ditch" color="181,209,209" fill="0" layer="-4.00" shape="1013.375714,4171.207550 1052.498077,4138.207382 1095.998127,4132.713451 1122.120042,4134.714779 1194.242314,4156.716212 1260.114830,4190.210198 1307.989737,4196.707222 1379.744039,4196.207081 1415.742251,4181.206885 1483.740285,4115.716606 1538.613517,4072.709474 1588.363735,4038.219715 1611.237050,4029.719150 1622.232249,4039.718597 1654.612970,4140.716436 1754.111546,4094.218743 1769.357884,4097.717415 1792.109629,4219.709213 1794.356942,4280.209418 1802.233946,4305.715600 1834.977539,4381.711723 1855.857605,4413.707415 1925.549831,4487.954570 1928.199413,4493.632283"/>
    <poly id="245201603" type="waterway.drain" color="181,209,209" fill="0" layer="-4.00" shape="3210.704224,4410.213019 3217.579853,4411.214497 3308.201295,4397.215634 3414.075672,4364.719150 3427.327688,4305.215195 3487.452921,4181.222564 3533.574118,4153.225102 3621.573676,4127.223765 3741.195995,4119.227386 3755.568339,4132.221256 3784.196913,4126.725937 3791.696321,4130.720241 3807.941772,4162.724211 3819.819356,4167.720396 3894.193048,4141.725227 3899.566905,4143.218785 3909.692990,4166.227956 3918.067644,4171.221444 4624.430907,4057.730410 4656.430108,4038.233081 4749.798991,4025.231532 4805.176646,4033.225696 4909.172030,4036.225253 4916.051089,4041.733690 4921.674844,4083.726525 4932.676455,4091.229537 5290.428958,4072.697862"/>
    <poly id="245202553" type="waterway.drain" color="181,209,209" fill="0" layer="-4.00" shape="977.124011,4049.210361 977.494971,4044.707522 969.872316,4039.711260 887.753013,4031.207976 716.752798,3968.718154 690.504550,3964.711971 587.383531,3966.217294 450.630255,4007.706078 423.585423,4010.491301"/>
    <poly id="245202595" type="waterway.drain" color="181,209,209" fill="0" layer="-4.00" shape="765.250909,3829.711301 789.127255,3827.716718 839.998223,3844.215048 899.249990,3813.714575 907.502757,3814.217029 928.378509,3832.716858 934.498718,3832.220907 1032.944757,3794.573212"/>
    <poly id="245202681" type="waterway.drain" color="181,209,209" fill="0" layer="-4.00" shape="1305.489619,4712.705238 1340.736900,4706.198523 1412.236193,4691.207926 1436.614714,4690.701993 1482.986512,4675.201664 1511.614154,4656.704623 1548.361053,4620.709224 1638.358215,4617.209545 1727.856215,4597.209045 1740.732657,4586.208287 1778.726634,4462.953143 1779.707357,4460.763263 1781.249260,4458.915831 1783.222120,4457.539710 1785.496503,4456.741548 1787.905725,4456.571057 1790.268198,4457.055172 1928.199413,4493.632283 1946.818724,4499.431144 1950.664675,4500.824387 1953.779493,4502.903593 1957.515172,4507.407403 1984.723537,4537.203100 1995.855786,4536.207405 2033.847733,4513.706585 2044.223897,4515.209108 2073.978237,4597.207362 2078.602184,4626.703062 2087.349857,4632.708390 2172.719420,4608.707916 2384.342355,4603.707270 2454.715356,4590.712593 2489.719552,4575.204848 2551.591235,4523.890077 2571.594306,4515.713663 2596.115539,4505.484415"/>
    <poly id="245202683" type="waterway.drain" color="181,209,209" fill="0" layer="-4.00" shape="3210.704224,4410.213019 3207.832380,4394.716051 3183.703455,4283.713486 3182.455735,4253.714083 3212.078922,4155.717304 3215.455824,4103.725204 3211.579599,4048.971850"/>
    <poly id="245202783" type="waterway.drain" color="181,209,209" fill="0" layer="-4.00" shape="3272.828024,3881.725674 3304.207705,3877.727751 3385.581361,3879.228151 3400.951743,3875.727532 3437.198783,3855.730633"/>
    <poly id="304107261" type="waterway.drain" color="181,209,209" fill="0" layer="-4.00" shape="2596.115539,4505.484415 2701.838511,4470.212480 2727.216693,4473.217437 2769.959242,4461.212144 2779.836920,4454.211131 2785.961828,4441.214675 2792.191434,4428.366551"/>
    <poly id="304107262" type="waterway.drain" color="181,209,209" fill="0" layer="-4.00" shape="2792.191434,4428.366551 2801.590151,4386.710838 2927.213035,4348.713467 2948.209847,4349.716845 3023.206545,4405.712315 3064.955519,4424.718533 3104.080382,4427.213628 3210.704224,4410.213019"/>
    <poly id="304695807" type="waterway.drain" color="181,209,209" fill="0" layer="-4.00" shape="1079.006594,3747.947631 1111.596378,3722.747840 1155.993346,3697.720440 1224.612857,3657.598540 1236.174033,3652.501053 1252.980964,3647.655647 1272.078979,3642.212727 1282.322665,3638.837329 1291.325730,3635.229019 1306.670201,3627.317738 1339.483259,3610.513661 1346.491757,3610.227454 1343.239665,3496.223960 1347.991510,3490.229747 1384.117238,3489.726918 1392.494215,3484.728472 1375.740176,3402.726896 1367.871360,3320.227453 1369.338254,3289.613150"/>
    <poly id="304695811" type="waterway.drain" color="181,209,209" fill="0" layer="-4.00" shape="1032.944757,3794.573212 1079.006594,3747.947631"/>
    <poly id="351464492" type="amenity.parking" color="184,184,179" fill="1" layer="-1.00" shape="2384.655101,3863.338708 2387.919767,3827.804940 2348.784241,3842.766383 2346.434797,3846.776286 2346.505047,3850.549526 2351.826731,3872.550958 2384.655101,3863.338708"/>
    <poly id="351465194" type="leisure.swimming_pool" color="207,245,201" fill="1" layer="-2.00" shape="2387.881314,3365.447813 2387.245074,3365.447470 2386.163593,3365.598166 2385.234194,3366.332665 2385.186338,3368.344254 2386.115039,3369.178093 2387.097163,3369.613396 2388.223742,3369.519917 2389.399975,3368.249149 2389.497008,3367.507344 2388.863352,3366.328039 2388.710438,3365.988916 2388.416313,3365.644779 2387.881314,3365.447813"/>
    <poly id="351465195" type="amenity.school" color="237,199,199" fill="1" layer="-1.00" shape="2191.543748,3584.957740 2212.389713,3685.916659 2216.516690,3688.921731 2225.188197,3686.926927 2228.705741,3700.466231 2231.498360,3701.010248 2233.163555,3702.337373 2235.216450,3711.553430 2268.695271,3700.628408 2255.067640,3655.919216 2277.451815,3645.557103 2257.205128,3608.966478 2238.717519,3573.928854 2208.267637,3574.294463 2191.543748,3584.957740"/>
    <poly id="351465202" type="leisure.swimming_pool" color="207,245,201" fill="1" layer="-2.00" shape="761.218637,4110.056668 760.656213,4109.970102 760.087914,4110.050172 759.583945,4110.310478 759.176858,4110.718799 758.915675,4111.221246 758.832948,4111.785601 758.922791,4112.356039 759.179709,4112.865630 759.581737,4113.269107 760.091221,4113.520651 760.653253,4113.618327 761.214099,4113.526870 761.725912,4113.266841 762.132999,4112.858521 762.386338,4112.355797 762.476910,4111.791719 762.387067,4111.221281 762.129758,4110.722799 761.727730,4110.319322 761.218637,4110.056668"/>
    <poly id="351465204" type="leisure.swimming_pool" color="207,245,201" fill="1" layer="-2.00" shape="2015.935140,3643.511180 2015.356994,3643.423947 2014.780391,3643.514738 2014.252401,3643.785222 2013.845201,3644.193465 2013.575267,3644.717805 2013.484187,3645.292977 2013.573535,3645.874546 2013.837830,3646.395577 2014.255112,3646.810801 2014.779888,3647.074112 2015.350189,3647.161067 2015.934636,3647.070555 2016.454387,3646.810902 2016.861982,3646.391550 2017.131915,3645.867210 2017.222996,3645.292038 2017.133254,3644.721578 2016.868960,3644.200546 2016.451678,3643.785323 2015.935140,3643.511180"/>
    <poly id="351465209" type="leisure.swimming_pool" color="207,245,201" fill="1" layer="-2.00" shape="2423.821187,3533.237451 2423.083026,3533.011020 2422.640512,3533.306754 2421.784192,3533.532176 2421.235614,3534.602764 2421.269619,3535.193498 2421.638541,3536.085328 2421.790523,3537.114055 2421.639711,3538.043043 2421.936891,3538.743232 2422.491813,3539.263480 2423.008785,3539.304085 2423.821934,3539.188361 2424.709769,3538.296669 2424.709602,3537.195472 2424.304217,3536.224485 2424.190231,3535.452940 2424.226830,3534.864712 2424.416821,3534.159578 2424.412967,3533.825747 2424.193007,3533.384133 2423.821187,3533.237451"/>
    <poly id="351465210" type="leisure.pitch" color="207,245,201" fill="1" layer="-2.00" shape="2313.356342,3899.983007 2306.701323,3872.172497 2292.116956,3875.681380 2298.703405,3903.433821 2313.356342,3899.983007"/>
    <poly id="351465210#1" type="sport.basketball" color="79,230,125" fill="1" layer="-2.00" shape="2313.356342,3899.983007 2306.701323,3872.172497 2292.116956,3875.681380 2298.703405,3903.433821 2313.356342,3899.983007"/>
    <poly id="351465212" type="leisure.pitch" color="207,245,201" fill="1" layer="-2.00" shape="2369.032634,3986.328799 2353.220718,3919.784841 2249.494298,3944.433458 2265.307590,4010.966014 2369.032634,3986.328799"/>
    <poly id="351465212#1" type="sport.soccer" color="79,230,125" fill="1" layer="-2.00" shape="2369.032634,3986.328799 2353.220718,3919.784841 2249.494298,3944.433458 2265.307590,4010.966014 2369.032634,3986.328799"/>
    <poly id="351465220" type="leisure.pitch" color="207,245,201" fill="1" layer="-2.00" shape="2352.858794,3913.387304 2338.072372,3851.573795 2306.296288,3855.039606 2321.635628,3920.977089 2352.858794,3913.387304"/>
    <poly id="351465220#1" type="sport.soccer" color="79,230,125" fill="1" layer="-2.00" shape="2352.858794,3913.387304 2338.072372,3851.573795 2306.296288,3855.039606 2321.635628,3920.977089 2352.858794,3913.387304"/>
    <poly id="351465222" type="leisure.swimming_pool" color="207,245,201" fill="1" layer="-2.00" shape="2904.289071,4056.101915 2902.305952,4050.914647 2899.917486,4051.819599 2901.900211,4057.017975 2904.289071,4056.101915"/>
    <poly id="351465224" type="building.yes" color="255,230,230" fill="1" layer="-1.00" shape="2375.668941,3652.992358 2343.458746,3664.896226 2346.389922,3703.352879 2388.524644,3687.785980 2375.668941,3652.992358"/>
    <poly id="351465230" type="building.yes" color="255,230,230" fill="1" layer="-1.00" shape="2358.198163,3673.405925 2368.165264,3669.655361 2370.962440,3676.929104 2361.016516,3680.747154 2358.198163,3673.405925"/>
    <poly id="351465231" type="leisure.swimming_pool" color="207,245,201" fill="1" layer="-2.00" shape="1917.663475,4433.928201 1915.418593,4433.893130 1909.866495,4438.757367 1914.855905,4444.451260 1917.077646,4444.474388 1917.663475,4433.928201"/>
    <poly id="351465233" type="leisure.swimming_pool" color="207,245,201" fill="1" layer="-2.00" shape="1703.413510,3869.506161 1698.591944,3869.257607 1698.163214,3877.818313 1710.848785,3878.456506 1711.119554,3873.026912 1705.396275,3872.735306 1703.413510,3869.506161"/>
    <poly id="351465236" type="amenity.library" color="237,199,199" fill="1" layer="-1.00" shape="2456.938178,3732.227774 2420.842161,3744.960924 2410.597626,3755.419931 2412.988585,3757.762841 2410.315352,3760.493187 2410.362540,3761.818518 2417.871301,3766.245238 2423.760325,3760.325527 2421.865367,3758.834464 2423.368045,3756.774432 2425.285908,3755.630122 2435.769492,3751.931381 2439.523831,3750.607591 2460.777005,3743.120222 2456.938178,3732.227774"/>
    <poly id="351465236#1" type="building.public" color="255,230,230" fill="1" layer="-1.00" shape="2456.938178,3732.227774 2420.842161,3744.960924 2410.597626,3755.419931 2412.988585,3757.762841 2410.315352,3760.493187 2410.362540,3761.818518 2417.871301,3766.245238 2423.760325,3760.325527 2421.865367,3758.834464 2423.368045,3756.774432 2425.285908,3755.630122 2435.769492,3751.931381 2439.523831,3750.607591 2460.777005,3743.120222 2456.938178,3732.227774"/>
    <poly id="351465237" type="building.yes" color="255,230,230" fill="1" layer="-1.00" shape="2254.858674,3974.311490 2252.373952,3963.767558 2248.453161,3964.696231 2244.670787,3948.667038 2236.671121,3950.552156 2238.493930,3958.280683 2237.329380,3958.561927 2239.527640,3967.883263 2235.424858,3968.849978 2235.158747,3967.717098 2227.404647,3969.544202 2230.667360,3983.397054 2255.054166,3977.655369 2254.296208,3974.447252 2254.858674,3974.311490"/>
    <poly id="351465237#1" type="leisure.sports_centre" color="207,245,201" fill="1" layer="-2.00" shape="2254.858674,3974.311490 2252.373952,3963.767558 2248.453161,3964.696231 2244.670787,3948.667038 2236.671121,3950.552156 2238.493930,3958.280683 2237.329380,3958.561927 2239.527640,3967.883263 2235.424858,3968.849978 2235.158747,3967.717098 2227.404647,3969.544202 2230.667360,3983.397054 2255.054166,3977.655369 2254.296208,3974.447252 2254.858674,3974.311490"/>
    <poly id="351465238" type="building.public" color="255,230,230" fill="1" layer="-1.00" shape="2266.367220,3868.249278 2258.279024,3871.076701 2243.938695,3874.349645 2241.250338,3874.632428 2250.218271,3910.533589 2251.958353,3909.527523 2275.117832,3903.631106 2266.367220,3868.249278"/>
    <poly id="351465238#1" type="leisure.sports_centre" color="207,245,201" fill="1" layer="-2.00" shape="2266.367220,3868.249278 2258.279024,3871.076701 2243.938695,3874.349645 2241.250338,3874.632428 2250.218271,3910.533589 2251.958353,3909.527523 2275.117832,3903.631106 2266.367220,3868.249278"/>
    <poly id="351465239" type="amenity.school" color="237,199,199" fill="1" layer="-1.00" shape="2119.840486,3884.317968 2120.344085,3978.404049 2123.218647,3978.405901 2191.537951,3959.929185 2169.287469,3871.800991 2119.840486,3884.317968"/>
    <poly id="351465240" type="amenity.school" color="237,199,199" fill="1" layer="-1.00" shape="2173.696936,3827.431557 2186.372169,3877.512624 2185.433493,3880.282349 2201.469553,3938.569221 2202.448680,3939.972107 2204.788979,3940.422209 2217.977355,3936.185092 2221.434852,3944.550021 2233.038513,3941.146552 2246.614587,3916.690270 2246.608644,3914.865865 2235.841670,3869.679791 2241.021296,3868.028282 2229.182500,3830.023108 2223.616694,3812.896206 2188.725704,3824.016028 2190.287379,3829.588504 2181.058140,3832.698114 2178.734549,3826.019667 2173.696936,3827.431557"/>
    <poly id="351465241" type="amenity.post_office" color="237,199,199" fill="1" layer="-1.00" shape="2384.441953,3734.191381 2376.678313,3736.941207 2377.221253,3738.462110 2373.936066,3739.624625 2377.028262,3748.321489 2388.061780,3744.397488 2384.441953,3734.191381"/>
    <poly id="351465241#1" type="building.public" color="255,230,230" fill="1" layer="-1.00" shape="2384.441953,3734.191381 2376.678313,3736.941207 2377.221253,3738.462110 2373.936066,3739.624625 2377.028262,3748.321489 2388.061780,3744.397488 2384.441953,3734.191381"/>
    <poly id="351465242" type="landuse.cemetery" color="194,194,130" fill="1" layer="-3.00" shape="2179.196393,3516.090291 2178.189902,3511.249401 2234.934719,3499.681248 2234.429908,3495.091732 2214.345258,3458.117747 2212.246601,3458.821908 2211.812352,3456.670863 2208.695427,3457.294407 2208.001730,3453.821630 2205.106040,3454.408532 2204.645532,3452.111955 2157.868180,3461.464499 2158.161345,3462.943148 2156.979409,3463.490750 2155.093864,3463.501733 2154.389538,3462.542410 2152.815211,3461.529983 2151.567147,3461.063037 2150.513166,3461.103516 2149.508548,3461.523931 2148.714525,3462.207648 2147.932576,3463.436826 2147.622794,3465.305644 2145.954903,3465.602427 2141.709860,3466.363962 2141.001297,3462.423496 2137.009261,3463.138392 2136.321471,3459.276525 2132.613823,3459.945894 2131.911916,3456.039035 2127.761797,3456.781700 2127.053223,3452.841236 2123.218871,3453.539487 2122.550272,3449.800657 2118.495078,3450.524448 2117.812756,3446.729517 2113.409625,3447.518835 2109.337953,3448.264293 2122.603782,3514.294345 2124.206037,3522.270823 2158.121497,3515.442834 2158.922136,3519.887109 2165.170384,3518.896320 2168.506925,3520.716509 2169.876304,3520.420267 2171.419453,3520.096820 2172.811834,3518.266405 2173.652207,3517.161657 2176.973854,3516.523114 2179.196393,3516.090291"/>
    <poly id="351465245" type="building.yes" color="255,230,230" fill="1" layer="-1.00" shape="1154.059646,4208.375875 1154.599753,4205.091418 1159.940709,4205.969685 1161.888953,4194.170248 1162.232519,4194.226875 1163.022095,4189.438501 1152.637050,4187.725822 1152.536637,4188.345164 1149.249222,4187.806383 1146.044291,4207.169575 1154.059646,4208.375875"/>
    <poly id="351465246" type="building.yes" color="255,230,230" fill="1" layer="-1.00" shape="1636.685314,3784.021576 1640.758550,3784.555040 1641.410061,3779.683952 1628.925199,3778.029694 1629.332979,3774.940793 1624.851820,3774.392902 1623.683042,3783.227738 1628.967856,3783.926423 1628.548300,3787.126138 1636.138988,3788.140018 1636.685314,3784.021576"/>
    <poly id="351465248" type="building.yes" color="255,230,230" fill="1" layer="-1.00" shape="890.362275,3768.197340 885.116694,3769.280335 885.357577,3770.912784 878.851384,3771.884582 881.839197,3789.831200 891.108576,3788.456338 890.270205,3782.831915 891.075437,3782.715719 890.623494,3779.718823 892.044908,3779.502009 890.362275,3768.197340"/>
    <poly id="351465253" type="building.yes" color="255,230,230" fill="1" layer="-1.00" shape="2435.684329,3423.906648 2434.718057,3407.321090 2426.815219,3407.785695 2426.922716,3409.624831 2417.807804,3410.157636 2418.616572,3424.101409 2419.568974,3424.046244 2423.905773,3423.799814 2427.865225,3423.562233 2427.907820,3424.353489 2435.684329,3423.906648"/>
    <poly id="351465255" type="building.yes" color="255,230,230" fill="1" layer="-1.00" shape="1844.582083,3878.042566 1845.117919,3874.224083 1849.533881,3874.836566 1850.881141,3865.184963 1847.763018,3864.740810 1848.100619,3862.305691 1837.275820,3860.798800 1836.192378,3868.546579 1833.238203,3868.130487 1832.092746,3876.298747 1844.582083,3878.042566"/>
    <poly id="351465260" type="building.yes" color="255,230,230" fill="1" layer="-1.00" shape="2607.698907,3739.275292 2600.728805,3741.352296 2600.278318,3740.546539 2581.884582,3746.911527 2587.786993,3763.383378 2608.550259,3756.646583 2608.113884,3755.885820 2612.788899,3754.294528 2612.367818,3753.545431 2614.932584,3752.101597 2607.698907,3739.275292"/>
    <poly id="351465262" type="building.yes" color="255,230,230" fill="1" layer="-1.00" shape="2640.000665,3929.395224 2638.754878,3929.751370 2636.951454,3923.258057 2635.174168,3923.762157 2634.442921,3921.133336 2627.544894,3922.734563 2631.870079,3938.271681 2630.910247,3938.537886 2632.428780,3943.986613 2642.963402,3941.057541 2640.000665,3929.395224"/>
    <poly id="351465264" type="building.yes" color="255,230,230" fill="1" layer="-1.00" shape="2168.599947,3582.530970 2168.125839,3577.074947 2160.932402,3577.698509 2160.977822,3578.189537 2155.289443,3578.677398 2155.661761,3583.017497 2156.193442,3589.065085 2156.282706,3590.091578 2167.833212,3589.088657 2167.276110,3582.650857 2168.599947,3582.530970"/>
    <poly id="351465268" type="building.shed" color="255,230,230" fill="1" layer="-1.00" shape="2430.007243,4471.806823 2428.460191,4460.528588 2420.607942,4461.595558 2421.710177,4469.699008 2420.755564,4469.820823 2421.035131,4471.899663 2421.745405,4471.802539 2422.150670,4474.764574 2428.558824,4473.891018 2428.302742,4472.035475 2430.007243,4471.806823"/>
    <poly id="351465269" type="building.shed" color="255,230,230" fill="1" layer="-1.00" shape="2333.984373,4500.030716 2332.824648,4500.178629 2331.899027,4492.848970 2328.648893,4493.256351 2329.500906,4500.004992 2328.096845,4500.177599 2329.199048,4508.948415 2333.726947,4508.386190 2333.580119,4507.213044 2334.866130,4507.047369 2333.984373,4500.030716"/>
    <poly id="351465270" type="building.yes" color="255,230,230" fill="1" layer="-1.00" shape="2519.443826,3982.261306 2515.237837,3983.257544 2514.637929,3980.689023 2507.731371,3982.312317 2508.372821,3985.038038 2504.127220,3986.043999 2508.092688,4002.869647 2510.041330,4002.404972 2513.502443,4001.593604 2523.442558,3999.254995 2519.443826,3982.261306"/>
    <poly id="351465272" type="building.yes" color="255,230,230" fill="1" layer="-1.00" shape="1735.582932,3622.645190 1735.710872,3621.915598 1739.668877,3622.600761 1740.550740,3617.437512 1740.074571,3617.353914 1741.123621,3611.240001 1731.106798,3609.528346 1731.551058,3606.963523 1724.813290,3605.812893 1722.326294,3620.373922 1735.582932,3622.645190"/>
    <poly id="351465278" type="building.roof" color="255,230,230" fill="1" layer="-1.00" shape="2781.784029,4407.651904 2778.514501,4408.380943 2779.442466,4412.540670 2771.050974,4414.411146 2772.562299,4422.262285 2778.351136,4419.153523 2777.909789,4416.768576 2780.299562,4416.264070 2779.493815,4412.642606 2782.723727,4411.923281 2781.784029,4407.651904"/>
    <poly id="351465284" type="building.yes" color="255,230,230" fill="1" layer="-1.00" shape="2538.723661,3902.092066 2536.442922,3891.566365 2532.865660,3892.329104 2532.312419,3889.773363 2523.146463,3891.761290 2524.543288,3898.206744 2522.635414,3898.628372 2524.833931,3908.594987 2537.411202,3905.871799 2536.689487,3902.531448 2538.723661,3902.092066"/>
    <poly id="351465291" type="building.yes" color="255,230,230" fill="1" layer="-1.00" shape="2611.512908,3614.953662 2609.153963,3609.942253 2608.283482,3610.345118 2605.807702,3605.084848 2594.240772,3610.524535 2597.424201,3617.311578 2598.135020,3616.980900 2603.870621,3614.281603 2605.002460,3616.691066 2605.513689,3617.777061 2611.512908,3614.953662"/>