<?xml version="1.0" encoding="UTF-8"?>

<!-- generated on Tue Aug 27 10:19:21 2019 by Eclipse SUMO duarouter Version 1.2.0
<configuration xmlns:xsi="http://www.w3.org/2001/XMLSchema-instance" xsi:noNamespaceSchemaLocation="http://sumo.dlr.de/xsd/duarouterConfiguration.xsd">

    <input>
        <net-file value="/home/werer/sumo/tools/2019-08-27-10-19-13/osm.net.xml"/>
        <route-files value="/home/werer/sumo/tools/2019-08-27-10-19-13/osm.passenger.trips.xml"/>
    </input>

    <output>
        <output-file value="/home/werer/sumo/tools/2019-08-27-10-19-13/osm.passenger.trips.xml.tmp"/>
        <write-trips value="true"/>
    </output>

    <time>
        <begin value="0"/>
        <end value="3600.0"/>
    </time>

    <report>
        <no-warnings value="true"/>
        <ignore-errors value="true"/>
        <no-step-log value="true"/>
    </report>

</configuration>
-->

<routes xmlns:xsi="http://www.w3.org/2001/XMLSchema-instance" xsi:noNamespaceSchemaLocation="http://sumo.dlr.de/xsd/routes_file.xsd">
    <vType id="veh_passenger" vClass="passenger"/>
    <trip id="veh0" type="veh_passenger" depart="0.00" departLane="best" departSpeed="max" from="-687719440#1" to="-304644357#0"/>
    <trip id="veh1" type="veh_passenger" depart="4.39" departLane="best" from="304644357#5" to="37122219"/>
    <trip id="veh2" type="veh_passenger" depart="8.78" departLane="best" departSpeed="max" from="-37122253#1" to="-304644357#0"/>
    <trip id="veh3" type="veh_passenger" depart="13.17" departLane="best" from="-348983334#4" to="348983334#10"/>
    <trip id="veh4" type="veh_passenger" depart="17.56" departLane="best" departSpeed="max" from="-109337954" to="-351474153#1"/>
    <trip id="veh5" type="veh_passenger" depart="21.95" departLane="best" departSpeed="max" from="-687719441" to="348983334#5"/>
    <trip id="veh6" type="veh_passenger" depart="26.34" departLane="best" from="-348983334#5" to="36906295#3"/>
    <trip id="veh8" type="veh_passenger" depart="35.12" departLane="best" from="348983334#1" to="37122240#1"/>
    <trip id="veh9" type="veh_passenger" depart="39.51" departLane="best" departSpeed="max" from="-37122219" to="-348983334#2"/>
    <trip id="veh10" type="veh_passenger" depart="43.90" departLane="best" from="37134434#1" to="-37136361#1"/>
    <trip id="veh11" type="veh_passenger" depart="48.29" departLane="best" from="-304644357#3" to="-304697741#1"/>
    <trip id="veh12" type="veh_passenger" depart="52.68" departLane="best" from="348983334#8" to="36906295#5"/>
    <trip id="veh13" type="veh_passenger" depart="57.07" departLane="best" from="348983334#2" to="37122251"/>
    <trip id="veh14" type="veh_passenger" depart="61.46" departLane="best" departSpeed="max" from="-37134584#1" to="687719440#1"/>
    <trip id="veh15" type="veh_passenger" depart="65.84" departLane="best" departSpeed="max" from="-37122240#1" to="348983334#7"/>
    <trip id="veh16" type="veh_passenger" depart="70.23" departLane="best" from="-348983334#7" to="-37122253#0"/>
    <trip id="veh17" type="veh_passenger" depart="74.62" departLane="best" from="-304644357#1" to="-36906295#3"/>
    <trip id="veh18" type="veh_passenger" depart="79.01" departLane="best" from="-304644357#5" to="-37122250#1"/>
    <trip id="veh19" type="veh_passenger" depart="83.40" departLane="best" departSpeed="max" from="-687719440#1" to="109337958#1"/>
    <trip id="veh20" type="veh_passenger" depart="87.79" departLane="best" departSpeed="max" from="-37122240#1" to="-36906294#2"/>
    <trip id="veh21" type="veh_passenger" depart="92.18" departLane="best" from="-36906295#2" to="37248883"/>
    <trip id="veh22" type="veh_passenger" depart="96.57" departLane="best" departSpeed="max" from="-687719441" to="36906295#5"/>
    <trip id="veh23" type="veh_passenger" depart="100.96" departLane="best" departSpeed="max" from="-348983334#10" to="37122251"/>
    <trip id="veh24" type="veh_passenger" depart="105.35" departLane="best" departSpeed="max" from="-348983334#10" to="109337977"/>
    <trip id="veh25" type="veh_passenger" depart="109.74" departLane="best" departSpeed="max" from="37136361#0" to="37122208#2"/>
    <trip id="veh26" type="veh_passenger" depart="114.13" departLane="best" departSpeed="max" from="-37136338#1" to="37122240#1"/>
    <trip id="veh27" type="veh_passenger" depart="118.52" departLane="best" from="348983334#8" to="37134433#2"/>
    <trip id="veh28" type="veh_passenger" depart="122.91" departLane="best" from="-348983334#7" to="-304644357#0"/>
    <trip id="veh29" type="veh_passenger" depart="127.30" departLane="best" departSpeed="max" from="-37122208#2" to="-37122221"/>
    <trip id="veh30" type="veh_passenger" depart="131.69" departLane="best" from="-348983334#3" to="686880301"/>
    <trip id="veh31" type="veh_passenger" depart="136.08" departLane="best" from="36906295#3" to="-37136360#0"/>
    <trip id="veh33" type="veh_passenger" depart="144.86" departLane="best" from="-36906295#0" to="-37122208#0"/>
    <trip id="veh34" type="veh_passenger" depart="149.25" departLane="best" departSpeed="max" from="-37136339" to="-37122219"/>
    <trip id="veh35" type="veh_passenger" depart="153.64" departLane="best" departSpeed="max" from="-37248883" to="37136339"/>
    <trip id="veh36" type="veh_passenger" depart="158.03" departLane="best" departSpeed="max" from="-37122251" to="-36906295#2"/>
    <trip id="veh37" type="veh_passenger" depart="162.42" departLane="best" from="687719440#0" to="348983334#10"/>
    <trip id="veh38" type="veh_passenger" depart="166.81" departLane="best" from="-304644357#3" to="-304644357#0"/>
    <trip id="veh39" type="veh_passenger" depart="171.20" departLane="best" departSpeed="max" from="-304695817" to="37122208#2"/>
    <trip id="veh40" type="veh_passenger" depart="175.59" departLane="best" departSpeed="max" from="348983334#0" to="304644357#1"/>
    <trip id="veh42" type="veh_passenger" depart="184.37" departLane="best" from="37136361#1" to="348983334#3"/>
    <trip id="veh43" type="veh_passenger" depart="188.76" departLane="best" from="37136360#0" to="37136338#0"/>
    <trip id="veh44" type="veh_passenger" depart="193.15" departLane="best" departSpeed="max" from="-109337950" to="37122251"/>
    <trip id="veh45" type="veh_passenger" depart="197.53" departLane="best" departSpeed="max" from="304644357#0" to="348983334#4"/>
    <trip id="veh46" type="veh_passenger" depart="201.92" departLane="best" from="-36906295#2" to="37122208#2"/>
    <trip id="veh47" type="veh_passenger" depart="206.31" departLane="best" departSpeed="max" from="-304695817" to="304644357#4"/>
    <trip id="veh48" type="veh_passenger" depart="210.70" departLane="best" from="36906295#3" to="-37122219"/>
    <trip id="veh49" type="veh_passenger" depart="215.09" departLane="best" departSpeed="max" from="-37134545" to="-348983334#5"/>
    <trip id="veh50" type="veh_passenger" depart="219.48" departLane="best" from="37122208#2" to="37136338#1"/>
    <trip id="veh51" type="veh_passenger" depart="223.87" departLane="best" from="-37122208#1" to="37122208#2"/>
    <trip id="veh52" type="veh_passenger" depart="228.26" departLane="best" departSpeed="max" from="-686880301" to="-348983334#2"/>
    <trip id="veh53" type="veh_passenger" depart="232.65" departLane="best" departSpeed="max" from="348983334#0" to="348983334#3"/>
    <trip id="veh54" type="veh_passenger" depart="237.04" departLane="best" departSpeed="max" from="-109337950" to="-37136361#0"/>
    <trip id="veh55" type="veh_passenger" depart="241.43" departLane="best" departSpeed="max" from="-109337954" to="37248883"/>
    <trip id="veh57" type="veh_passenger" depart="250.21" departLane="best" departSpeed="max" from="-37122208#2" to="-304644357#1"/>
    <trip id="veh58" type="veh_passenger" depart="254.60" departLane="best" from="-304644357#1" to="348983334#10"/>
    <trip id="veh60" type="veh_passenger" depart="263.38" departLane="best" departSpeed="max" from="-37134454" to="348983334#7"/>
    <trip id="veh61" type="veh_passenger" depart="267.77" departLane="best" from="-36906295#0" to="37136338#1"/>
    <trip id="veh62" type="veh_passenger" depart="272.16" departLane="best" departSpeed="max" from="-37122253#1" to="-36906295#0"/>
    <trip id="veh63" type="veh_passenger" depart="276.55" departLane="best" from="-37136338#0" to="37122251"/>
    <trip id="veh64" type="veh_passenger" depart="280.94" departLane="best" from="-348983334#2" to="-37136338#0"/>
    <trip id="veh65" type="veh_passenger" depart="285.33" departLane="best" from="37136361#1" to="37122208#2"/>
    <trip id="veh66" type="veh_passenger" depart="289.72" departLane="best" departSpeed="max" from="-37122254" to="348983334#10"/>
    <trip id="veh67" type="veh_passenger" depart="294.11" departLane="best" departSpeed="max" from="-304695817" to="-36906295#2"/>
    <trip id="veh68" type="veh_passenger" depart="298.50" departLane="best" departSpeed="max" from="-37122219" to="36906295#3"/>
    <trip id="veh69" type="veh_passenger" depart="302.89" departLane="best" from="-348983334#7" to="-36906295#2"/>
    <trip id="veh71" type="veh_passenger" depart="311.67" departLane="best" from="-348983334#7" to="37136360#1"/>
    <trip id="veh72" type="veh_passenger" depart="316.06" departLane="best" from="36906294#0" to="-304644357#3"/>
    <trip id="veh73" type="veh_passenger" depart="320.45" departLane="best" from="-348983334#8" to="37122219"/>
    <trip id="veh74" type="veh_passenger" depart="324.84" departLane="best" from="-348983334#4" to="-348983334#0"/>
    <trip id="veh75" type="veh_passenger" depart="329.22" departLane="best" from="37122250#2" to="36906294#0"/>
    <trip id="veh76" type="veh_passenger" depart="333.61" departLane="best" departSpeed="max" from="-37134454" to="37134434#1"/>
    <trip id="veh77" type="veh_passenger" depart="338.00" departLane="best" from="348983334#2" to="-348983334#8"/>
    <trip id="veh78" type="veh_passenger" depart="342.39" departLane="best" departSpeed="max" from="-37122253#1" to="304697741#2"/>
    <trip id="veh79" type="veh_passenger" depart="346.78" departLane="best" from="304644357#4" to="37122219"/>
    <trip id="veh80" type="veh_passenger" depart="351.17" departLane="best" departSpeed="max" from="37136361#0" to="-304697741#1"/>
    <trip id="veh81" type="veh_passenger" depart="355.56" departLane="best" departSpeed="max" from="-37122251" to="-687719440#0"/>
    <trip id="veh82" type="veh_passenger" depart="359.95" departLane="best" departSpeed="max" from="-348983334#10" to="304644357#6"/>
    <trip id="veh83" type="veh_passenger" depart="364.34" departLane="best" departSpeed="max" from="-37122253#1" to="-37122250#1"/>
    <trip id="veh84" type="veh_passenger" depart="368.73" departLane="best" from="-36906294#0" to="37136361#1"/>
    <trip id="veh85" type="veh_passenger" depart="373.12" departLane="best" departSpeed="max" from="-37122254" to="37136338#0"/>
    <trip id="veh86" type="veh_passenger" depart="377.51" departLane="best" departSpeed="max" from="-37136338#1" to="-304644357#0"/>
    <trip id="veh88" type="veh_passenger" depart="386.29" departLane="best" from="37136360#0" to="37248883"/>
    <trip id="veh89" type="veh_passenger" depart="390.68" departLane="best" from="348983334#8" to="-348983334#4"/>
    <trip id="veh90" type="veh_passenger" depart="395.07" departLane="best" departSpeed="max" from="-37134545" to="-36906295#0"/>
    <trip id="veh91" type="veh_passenger" depart="399.46" departLane="best" departSpeed="max" from="-37122251" to="-304644357#1"/>
    <trip id="veh92" type="veh_passenger" depart="403.85" departLane="best" from="-36906295#0" to="37134434#1"/>
    <trip id="veh93" type="veh_passenger" depart="408.24" departLane="best" from="-37134433#2" to="304644357#1"/>
    <trip id="veh94" type="veh_passenger" depart="412.63" departLane="best" from="37134434#1" to="687719441"/>
    <trip id="veh95" type="veh_passenger" depart="417.02" departLane="best" departSpeed="max" from="-37136338#1" to="37122251"/>
    <trip id="veh96" type="veh_passenger" depart="421.41" departLane="best" from="37136360#0" to="36906294#2"/>
    <trip id="veh97" type="veh_passenger" depart="425.80" departLane="best" departSpeed="max" from="-37136338#1" to="37122253#1"/>
    <trip id="veh100" type="veh_passenger" depart="438.97" departLane="best" from="-348983334#1" to="687719440#0"/>
    <trip id="veh101" type="veh_passenger" depart="443.36" departLane="best" from="-304644357#1" to="-348983334#7"/>
    <trip id="veh102" type="veh_passenger" depart="447.75" departLane="best" departSpeed="max" from="-37248883" to="37122219"/>
    <trip id="veh103" type="veh_passenger" depart="452.14" departLane="best" from="-348983334#8" to="-348983334#0"/>
    <trip id="veh104" type="veh_passenger" depart="456.52" departLane="best" departSpeed="max" from="-37248883" to="37122208#1"/>
    <trip id="veh105" type="veh_passenger" depart="460.91" departLane="best" departSpeed="max" from="-37122253#1" to="36906295#2"/>
    <trip id="veh106" type="veh_passenger" depart="465.30" departLane="best" departSpeed="max" from="-37134584#1" to="37248883"/>
    <trip id="veh107" type="veh_passenger" depart="469.69" departLane="best" from="-348983334#2" to="37122251"/>
    <trip id="veh110" type="veh_passenger" depart="482.86" departLane="best" departSpeed="max" from="-37122208#2" to="37122253#1"/>
    <trip id="veh111" type="veh_passenger" depart="487.25" departLane="best" from="-304644357#0" to="304697741#1"/>
    <trip id="veh112" type="veh_passenger" depart="491.64" departLane="best" from="-304644357#0" to="-36906295#0"/>
    <trip id="veh113" type="veh_passenger" depart="496.03" departLane="best" from="-36906295#0" to="37248883"/>
    <trip id="veh114" type="veh_passenger" depart="500.42" departLane="best" from="36906295#3" to="37136338#1"/>
    <trip id="veh115" type="veh_passenger" depart="504.81" departLane="best" departSpeed="max" from="-37122240#1" to="-348983334#3"/>
    <trip id="veh116" type="veh_passenger" depart="509.20" departLane="best" departSpeed="max" from="-686880301" to="687719441"/>
    <trip id="veh119" type="veh_passenger" depart="522.37" departLane="best" from="-304697741#1" to="-348983334#0"/>
    <trip id="veh120" type="veh_passenger" depart="526.76" departLane="best" from="-304644357#5" to="348983334#7"/>
    <trip id="veh121" type="veh_passenger" depart="531.15" departLane="best" from="304644357#1" to="-36906294#0"/>
    <trip id="veh122" type="veh_passenger" depart="535.54" departLane="best" departSpeed="max" from="-687719440#1" to="-37122219"/>
    <trip id="veh123" type="veh_passenger" depart="539.93" departLane="best" departSpeed="max" from="-37134545" to="37136360#1"/>
    <trip id="veh124" type="veh_passenger" depart="544.32" departLane="best" from="348983334#8" to="-304697741#0"/>
    <trip id="veh125" type="veh_passenger" depart="548.71" departLane="best" departSpeed="max" from="-37122253#1" to="-37122250#1"/>
    <trip id="veh126" type="veh_passenger" depart="553.10" departLane="best" departSpeed="max" from="-109337950" to="37134433#1"/>
    <trip id="veh127" type="veh_passenger" depart="557.49" departLane="best" departSpeed="max" from="-687719440#1" to="-37122219"/>
    <trip id="veh128" type="veh_passenger" depart="561.88" departLane="best" from="304644357#5" to="348983334#7"/>
    <trip id="veh130" type="veh_passenger" depart="570.66" departLane="best" from="-304644357#0" to="37136339"/>
    <trip id="veh131" type="veh_passenger" depart="575.05" departLane="best" from="348983334#5" to="36906295#2"/>
    <trip id="veh132" type="veh_passenger" depart="579.44" departLane="best" from="-348983334#0" to="-348983334#0"/>
    <trip id="veh133" type="veh_passenger" depart="583.83" departLane="best" departSpeed="max" from="-37122208#2" to="37136339"/>
    <trip id="veh134" type="veh_passenger" depart="588.21" departLane="best" departSpeed="max" from="348983334#0" to="37136338#0"/>
    <trip id="veh135" type="veh_passenger" depart="592.60" departLane="best" departSpeed="max" from="348983334#0" to="37136339"/>
    <trip id="veh136" type="veh_passenger" depart="596.99" departLane="best" departSpeed="max" from="-37122251" to="37122208#1"/>
    <trip id="veh137" type="veh_passenger" depart="601.38" departLane="best" from="-348983334#1" to="37248883"/>
    <trip id="veh138" type="veh_passenger" depart="605.77" departLane="best" from="36906294#2" to="687719440#1"/>
    <trip id="veh139" type="veh_passenger" depart="610.16" departLane="best" from="348983334#2" to="37136338#1"/>
    <trip id="veh140" type="veh_passenger" depart="614.55" departLane="best" departSpeed="max" from="-109337954" to="37122253#1"/>
    <trip id="veh141" type="veh_passenger" depart="618.94" departLane="best" departSpeed="max" from="-37122208#2" to="37248883"/>
    <trip id="veh142" type="veh_passenger" depart="623.33" departLane="best" from="348983334#1" to="37136338#1"/>
    <trip id="veh143" type="veh_passenger" depart="627.72" departLane="best" from="36906295#2" to="37134584#1"/>
    <trip id="veh144" type="veh_passenger" depart="632.11" departLane="best" from="-348983334#5" to="37134545"/>
    <trip id="veh145" type="veh_passenger" depart="636.50" departLane="best" departSpeed="max" from="348983334#0" to="-36906295#3"/>
    <trip id="veh146" type="veh_passenger" depart="640.89" departLane="best" departSpeed="max" from="-109337954" to="-348983334#8"/>
    <trip id="veh147" type="veh_passenger" depart="645.28" departLane="best" departSpeed="max" from="-37122208#2" to="37136338#1"/>
    <trip id="veh148" type="veh_passenger" depart="649.67" departLane="best" from="37136338#0" to="-37122250#1"/>
    <trip id="veh150" type="veh_passenger" depart="658.45" departLane="best" departSpeed="max" from="37136361#0" to="348983334#4"/>
    <trip id="veh151" type="veh_passenger" depart="662.84" departLane="best" from="37122251" to="-348983334#0"/>
    <trip id="veh152" type="veh_passenger" depart="667.23" departLane="best" from="37136360#0" to="-348983334#5"/>
    <trip id="veh153" type="veh_passenger" depart="671.62" departLane="best" from="37134434#2" to="-37122221"/>
    <trip id="veh154" type="veh_passenger" depart="676.01" departLane="best" departSpeed="max" from="-304695817" to="304644357#4"/>
    <trip id="veh155" type="veh_passenger" depart="680.40" departLane="best" departSpeed="max" from="-686880301" to="348983334#10"/>
    <trip id="veh156" type="veh_passenger" depart="684.79" departLane="best" from="-37122250#1" to="36906294#1"/>
    <trip id="veh157" type="veh_passenger" depart="689.18" departLane="best" from="-36906294#2" to="37122250#1"/>
    <trip id="veh158" type="veh_passenger" depart="693.57" departLane="best" departSpeed="max" from="-109337950" to="37248883"/>
    <trip id="veh159" type="veh_passenger" depart="697.96" departLane="best" from="-37136338#0" to="37122251"/>
    <trip id="veh160" type="veh_passenger" depart="702.35" departLane="best" from="304644357#6" to="37122219"/>
    <trip id="veh161" type="veh_passenger" depart="706.74" departLane="best" departSpeed="max" from="-37122240#1" to="-304644357#3"/>
    <trip id="veh163" type="veh_passenger" depart="715.52" departLane="best" departSpeed="max" from="-37122208#2" to="37134584#1"/>
    <trip id="veh164" type="veh_passenger" depart="719.90" departLane="best" from="304644357#1" to="-37134434#0"/>
    <trip id="veh166" type="veh_passenger" depart="728.68" departLane="best" departSpeed="max" from="-37122251" to="-37134433#2"/>
    <trip id="veh167" type="veh_passenger" depart="733.07" departLane="best" from="-304697741#0" to="304644357#1"/>
    <trip id="veh168" type="veh_passenger" depart="737.46" departLane="best" from="37122251" to="37122219"/>
    <trip id="veh169" type="veh_passenger" depart="741.85" departLane="best" from="-37122208#1" to="348983334#5"/>
    <trip id="veh170" type="veh_passenger" depart="746.24" departLane="best" departSpeed="max" from="-109337950" to="-37122253#0"/>
    <trip id="veh171" type="veh_passenger" depart="750.63" departLane="best" departSpeed="max" from="-37122253#1" to="36906294#2"/>
    <trip id="veh172" type="veh_passenger" depart="755.02" departLane="best" departSpeed="max" from="-687719441" to="304697741#2"/>
    <trip id="veh173" type="veh_passenger" depart="759.41" departLane="best" departSpeed="max" from="-37122254" to="-36906295#0"/>
    <trip id="veh174" type="veh_passenger" depart="763.80" departLane="best" departSpeed="max" from="-37134454" to="37136360#0"/>
    <trip id="veh175" type="veh_passenger" depart="768.19" departLane="best" departSpeed="max" from="348983334#0" to="-348983334#4"/>
    <trip id="veh176" type="veh_passenger" depart="772.58" departLane="best" from="-304644357#1" to="348983334#10"/>
    <trip id="veh177" type="veh_passenger" depart="776.97" departLane="best" departSpeed="max" from="-687719440#1" to="-37136361#1"/>
    <trip id="veh178" type="veh_passenger" depart="781.36" departLane="best" from="348983334#3" to="37122253#1"/>
    <trip id="veh180" type="veh_passenger" depart="790.14" departLane="best" from="-348983334#2" to="-304644357#0"/>
    <trip id="veh181" type="veh_passenger" depart="794.53" departLane="best" from="-351474153#1" to="348983334#0"/>
    <trip id="veh182" type="veh_passenger" depart="798.92" departLane="best" from="351474153#0" to="-304644357#4"/>
    <trip id="veh183" type="veh_passenger" depart="803.31" departLane="best" departSpeed="max" from="-37122253#1" to="37122208#2"/>
    <trip id="veh184" type="veh_passenger" depart="807.70" departLane="best" departSpeed="max" from="-348983334#10" to="37122240#1"/>
    <trip id="veh185" type="veh_passenger" depart="812.09" departLane="best" departSpeed="max" from="-37134545" to="-37122208#0"/>
    <trip id="veh187" type="veh_passenger" depart="820.87" departLane="best" from="304697741#1" to="37122254"/>
    <trip id="veh188" type="veh_passenger" depart="825.26" departLane="best" from="-304644357#5" to="304644357#1"/>
    <trip id="veh189" type="veh_passenger" depart="829.65" departLane="best" departSpeed="max" from="-348983334#10" to="686880301"/>
    <trip id="veh191" type="veh_passenger" depart="838.43" departLane="best" from="-36906294#0" to="37134584#1"/>
    <trip id="veh192" type="veh_passenger" depart="842.82" departLane="best" from="-37134434#0" to="37134454"/>
    <trip id="veh194" type="veh_passenger" depart="851.59" departLane="best" departSpeed="max" from="-37248883" to="686880301"/>
    <trip id="veh195" type="veh_passenger" depart="855.98" departLane="best" from="36906295#5" to="37122208#0"/>
    <trip id="veh196" type="veh_passenger" depart="860.37" departLane="best" from="304644357#1" to="348983334#10"/>
    <trip id="veh197" type="veh_passenger" depart="864.76" departLane="best" from="37122208#0" to="37122253#1"/>
    <trip id="veh198" type="veh_passenger" depart="869.15" departLane="best" departSpeed="max" from="-37134454" to="-37122208#2"/>
    <trip id="veh199" type="veh_passenger" depart="873.54" departLane="best" from="-351474153#1" to="37122208#2"/>
    <trip id="veh200" type="veh_passenger" depart="877.93" departLane="best" departSpeed="max" from="348983334#0" to="348983334#2"/>
    <trip id="veh201" type="veh_passenger" depart="882.32" departLane="best" from="-304644357#0" to="-37122251"/>
    <trip id="veh202" type="veh_passenger" depart="886.71" departLane="best" from="-36906295#2" to="-37136361#0"/>
    <trip id="veh203" type="veh_passenger" depart="891.10" departLane="best" from="-37136338#0" to="-348983334#0"/>
    <trip id="veh204" type="veh_passenger" depart="895.49" departLane="best" from="-348983334#7" to="37122240#1"/>
    <trip id="veh205" type="veh_passenger" depart="899.88" departLane="best" departSpeed="max" from="304644357#0" to="-304644357#1"/>
    <trip id="veh206" type="veh_passenger" depart="904.27" departLane="best" departSpeed="max" from="-37122251" to="348983334#5"/>
    <trip id="veh207" type="veh_passenger" depart="908.66" departLane="best" departSpeed="max" from="-37122253#1" to="-36906294#1"/>
    <trip id="veh208" type="veh_passenger" depart="913.05" departLane="best" departSpeed="max" from="-37122253#1" to="37136360#1"/>
    <trip id="veh209" type="veh_passenger" depart="917.44" departLane="best" from="-37136361#1" to="37122240#1"/>
    <trip id="veh210" type="veh_passenger" depart="921.83" departLane="best" from="36906294#0" to="37122254"/>
    <trip id="veh212" type="veh_passenger" depart="930.61" departLane="best" departSpeed="max" from="-37122219" to="37122254"/>
    <trip id="veh213" type="veh_passenger" depart="935.00" departLane="best" from="351474153#1" to="686880301"/>
    <trip id="veh214" type="veh_passenger" depart="939.39" departLane="best" departSpeed="max" from="-37136338#1" to="36906295#5"/>
    <trip id="veh215" type="veh_passenger" depart="943.78" departLane="best" from="-348983334#5" to="-36906295#2"/>
    <trip id="veh216" type="veh_passenger" depart="948.17" departLane="best" departSpeed="max" from="-37122254" to="-304644357#0"/>
    <trip id="veh217" type="veh_passenger" depart="952.56" departLane="best" departSpeed="max" from="-37122208#2" to="37122221"/>
    <trip id="veh218" type="veh_passenger" depart="956.95" departLane="best" departSpeed="max" from="-37122251" to="-348983334#4"/>
    <trip id="veh219" type="veh_passenger" depart="961.34" departLane="best" departSpeed="max" from="-37134454" to="-348983334#0"/>
    <trip id="veh220" type="veh_passenger" depart="965.73" departLane="best" from="-687719440#0" to="-304644357#0"/>
    <trip id="veh221" type="veh_passenger" depart="970.12" departLane="best" departSpeed="max" from="-37122251" to="351474153#0"/>
    <trip id="veh222" type="veh_passenger" depart="974.51" departLane="best" departSpeed="max" from="-109337954" to="37122208#2"/>
    <trip id="veh223" type="veh_passenger" depart="978.89" departLane="best" departSpeed="max" from="-109337958#1" to="109337977"/>
    <trip id="veh224" type="veh_passenger" depart="983.28" departLane="best" from="-348983334#4" to="-37136361#0"/>
    <trip id="veh225" type="veh_passenger" depart="987.67" departLane="best" from="304697741#2" to="109337977"/>
    <trip id="veh227" type="veh_passenger" depart="996.45" departLane="best" from="-36906294#1" to="-304644357#5"/>
    <trip id="veh228" type="veh_passenger" depart="1000.84" departLane="best" departSpeed="max" from="-109337954" to="348983334#4"/>
    <trip id="veh229" type="veh_passenger" depart="1005.23" departLane="best" from="687719440#0" to="109337954"/>
    <trip id="veh230" type="veh_passenger" depart="1009.62" departLane="best" departSpeed="max" from="-687719441" to="37134434#0"/>
    <trip id="veh231" type="veh_passenger" depart="1014.01" departLane="best" departSpeed="max" from="-687719441" to="37122254"/>
    <trip id="veh232" type="veh_passenger" depart="1018.40" departLane="best" from="37134433#1" to="-351474153#1"/>
    <trip id="veh233" type="veh_passenger" depart="1022.79" departLane="best" departSpeed="max" from="-109337954" to="-348983334#2"/>
    <trip id="veh234" type="veh_passenger" depart="1027.18" departLane="best" from="-304697741#0" to="37122219"/>
    <trip id="veh235" type="veh_passenger" depart="1031.57" departLane="best" departSpeed="max" from="304644357#0" to="37122254"/>
    <trip id="veh236" type="veh_passenger" depart="1035.96" departLane="best" departSpeed="max" from="-348983334#10" to="36906295#5"/>
    <trip id="veh237" type="veh_passenger" depart="1040.35" departLane="best" from="304644357#6" to="-348983334#0"/>
    <trip id="veh238" type="veh_passenger" depart="1044.74" departLane="best" from="348983334#3" to="687719440#1"/>
    <trip id="veh239" type="veh_passenger" depart="1049.13" departLane="best" departSpeed="max" from="-304695817" to="-304644357#0"/>
    <trip id="veh240" type="veh_passenger" depart="1053.52" departLane="best" departSpeed="max" from="-37122208#2" to="37122219"/>
    <trip id="veh242" type="veh_passenger" depart="1062.30" departLane="best" departSpeed="max" from="304644357#0" to="37122208#2"/>
    <trip id="veh243" type="veh_passenger" depart="1066.69" departLane="best" from="-304644357#5" to="37134433#1"/>
    <trip id="veh244" type="veh_passenger" depart="1071.08" departLane="best" from="351474153#0" to="36906295#4"/>
    <trip id="veh245" type="veh_passenger" depart="1075.47" departLane="best" departSpeed="max" from="-304695817" to="687719441"/>
    <trip id="veh246" type="veh_passenger" depart="1079.86" departLane="best" departSpeed="max" from="348983334#0" to="109337954"/>
    <trip id="veh247" type="veh_passenger" depart="1084.25" departLane="best" departSpeed="max" from="-37122253#1" to="109337958#1"/>
    <trip id="veh249" type="veh_passenger" depart="1093.03" departLane="best" from="351474153#0" to="37134545"/>
    <trip id="veh250" type="veh_passenger" depart="1097.42" departLane="best" from="-304644357#5" to="687719440#0"/>
    <trip id="veh252" type="veh_passenger" depart="1106.20" departLane="best" departSpeed="max" from="304644357#0" to="304644357#4"/>
    <trip id="veh253" type="veh_passenger" depart="1110.58" departLane="best" from="304644357#4" to="687719440#1"/>
    <trip id="veh254" type="veh_passenger" depart="1114.97" departLane="best" from="-36906295#2" to="37134545"/>
    <trip id="veh255" type="veh_passenger" depart="1119.36" departLane="best" from="-37136338#0" to="348983334#1"/>
    <trip id="veh256" type="veh_passenger" depart="1123.75" departLane="best" departSpeed="max" from="-37122254" to="37122251"/>
    <trip id="veh257" type="veh_passenger" depart="1128.14" departLane="best" from="-36906295#2" to="37134584#1"/>
    <trip id="veh258" type="veh_passenger" depart="1132.53" departLane="best" from="36906295#3" to="-37122208#0"/>
    <trip id="veh259" type="veh_passenger" depart="1136.92" departLane="best" from="-37134434#2" to="37122208#0"/>
    <trip id="veh260" type="veh_passenger" depart="1141.31" departLane="best" departSpeed="max" from="-37122240#1" to="-304644357#0"/>
    <trip id="veh261" type="veh_passenger" depart="1145.70" departLane="best" from="351474153#0" to="-348983334#7"/>