<?xml version="1.0" encoding="UTF-8"?>

<!-- generated on Tue Aug 27 10:19:20 2019 by Eclipse SUMO netconvert Version 1.2.0
<configuration xmlns:xsi="http://www.w3.org/2001/XMLSchema-instance" xsi:noNamespaceSchemaLocation="http://sumo.dlr.de/xsd/netconvertConfiguration.xsd">

    <input>
        <type-files value="/usr/share/sumo/data/typemap/osmNetconvert.typ.xml"/>
        <osm-files value="osm_bbox.osm.xml"/>
    </input>

    <output>
        <output-file value="osm.net.xml"/>
        <output.street-names value="true"/>
        <output.original-names value="true"/>
    </output>

    <projection>
        <proj.utm value="true"/>
    </projection>

    <processing>
        <geometry.remove value="true"/>
        <roundabouts.guess value="true"/>
    </processing>

    <tls_building>
        <tls.discard-simple value="true"/>
        <tls.join value="true"/>
        <tls.guess-signals value="true"/>
        <tls.default-type value="actuated"/>
    </tls_building>

    <ramp_guessing>
        <ramps.guess value="true"/>
    </ramp_guessing>

    <junctions>
        <junctions.join value="true"/>
        <junctions.corner-detail value="5"/>
    </junctions>

    <report>
        <verbose value="true"/>
    </report>

</configuration>
-->

<net version="1.1" junctionCornerDetail="5" limitTurnSpeed="5.50" xmlns:xsi="http://www.w3.org/2001/XMLSchema-instance" xsi:noNamespaceSchemaLocation="http://sumo.dlr.de/xsd/net_file.xsd">

    <location netOffset="-722085.65,-5012972.46" convBoundary="0.00,0.00,4356.98,5032.06" origBoundary="11.803675,45.228555,12.134520,45.280304" projParameter="+proj=utm +zone=32 +ellps=WGS84 +datum=WGS84 +units=m +no_defs"/>

    <type id="highway.bridleway" priority="1" numLanes="1" speed="2.78" allow="pedestrian" oneway="1" width="2.00"/>
    <type id="highway.bus_guideway" priority="1" numLanes="1" speed="27.78" allow="bus" oneway="1"/>
    <type id="highway.cycleway" priority="1" numLanes="1" speed="8.33" allow="bicycle" oneway="0" width="1.00"/>
    <type id="highway.footway" priority="1" numLanes="1" speed="2.78" allow="pedestrian" oneway="1" width="2.00"/>
    <type id="highway.ford" priority="1" numLanes="1" speed="2.78" allow="army" oneway="0"/>
    <type id="highway.living_street" priority="2" numLanes="1" speed="2.78" disallow="tram rail_urban rail rail_electric ship" oneway="0"/>
    <type id="highway.motorway" priority="14" numLanes="2" speed="39.44" allow="private emergency authority army vip passenger hov taxi bus coach delivery truck trailer motorcycle evehicle custom1 custom2" oneway="1"/>
    <type id="highway.motorway_link" priority="9" numLanes="1" speed="22.22" allow="private emergency authority army vip passenger hov taxi bus coach delivery truck trailer motorcycle evehicle custom1 custom2" oneway="1"/>
    <type id="highway.path" priority="1" numLanes="1" speed="2.78" allow="bicycle pedestrian" oneway="1" width="2.00"/>
    <type id="highway.pedestrian" priority="1" numLanes="1" speed="2.78" allow="pedestrian" oneway="1" width="2.00"/>
    <type id="highway.primary" priority="12" numLanes="2" speed="27.78" disallow="tram rail_urban rail rail_electric ship" oneway="0"/>
    <type id="highway.primary_link" priority="7" numLanes="1" speed="22.22" disallow="tram rail_urban rail rail_electric ship" oneway="0"/>
    <type id="highway.raceway" priority="15" numLanes="2" speed="83.33" allow="vip" oneway="0"/>
    <type id="highway.residential" priority="3" numLanes="1" speed="13.89" disallow="tram rail_urban rail rail_electric ship" oneway="0"/>
    <type id="highway.secondary" priority="11" numLanes="2" speed="27.78" disallow="tram rail_urban rail rail_electric ship" oneway="0"/>
    <type id="highway.secondary_link" priority="6" numLanes="1" speed="22.22" disallow="tram rail_urban rail rail_electric ship" oneway="0"/>
    <type id="highway.service" priority="1" numLanes="1" speed="5.56" allow="delivery bicycle pedestrian" oneway="0"/>
    <type id="highway.stairs" priority="1" numLanes="1" speed="1.39" allow="pedestrian" oneway="1" width="2.00"/>
    <type id="highway.step" priority="1" numLanes="1" speed="1.39" allow="pedestrian" oneway="1" width="2.00"/>
    <type id="highway.steps" priority="1" numLanes="1" speed="1.39" allow="pedestrian" oneway="1" width="2.00"/>
    <type id="highway.tertiary" priority="10" numLanes="1" speed="22.22" disallow="tram rail_urban rail rail_electric ship" oneway="0"/>
    <type id="highway.tertiary_link" priority="5" numLanes="1" speed="22.22" disallow="tram rail_urban rail rail_electric ship" oneway="0"/>
    <type id="highway.track" priority="1" numLanes="1" speed="5.56" disallow="tram rail_urban rail rail_electric ship" oneway="0"/>
    <type id="highway.trunk" priority="13" numLanes="2" speed="27.78" disallow="tram rail_urban rail rail_electric bicycle pedestrian ship" oneway="0"/>
    <type id="highway.trunk_link" priority="8" numLanes="1" speed="22.22" disallow="tram rail_urban rail rail_electric bicycle pedestrian ship" oneway="0"/>
    <type id="highway.unclassified" priority="4" numLanes="1" speed="13.89" disallow="tram rail_urban rail rail_electric ship" oneway="0"/>
    <type id="highway.unsurfaced" priority="1" numLanes="1" speed="8.33" disallow="tram rail_urban rail rail_electric ship" oneway="0"/>
    <type id="railway.light_rail" priority="19" numLanes="1" speed="27.78" allow="rail_urban" oneway="1"/>
    <type id="railway.preserved" priority="16" numLanes="1" speed="27.78" allow="rail" oneway="1"/>
    <type id="railway.rail" priority="20" numLanes="1" speed="83.33" allow="rail rail_electric" oneway="1"/>
    <type id="railway.subway" priority="18" numLanes="1" speed="27.78" allow="rail_urban" oneway="1"/>
    <type id="railway.tram" priority="17" numLanes="1" speed="13.89" allow="tram" oneway="1"/>

    <edge id=":1251961559_0" function="internal">
        <lane id=":1251961559_0_0" index="0" disallow="tram rail_urban rail rail_electric ship" speed="3.65" length="4.67" shape="1148.21,3375.48 1146.94,3374.81 1146.45,3374.06 1146.77,3373.22 1147.88,3372.30"/>
    </edge>
    <edge id=":1833526223_0" function="internal">
        <lane id=":1833526223_0_0" index="0" allow="bicycle pedestrian" speed="15.28" length="0.81" width="2.00" shape="2473.64,3132.91 2472.88,3133.19"/>
    </edge>
    <edge id=":1833526223_1" function="internal">
        <lane id=":1833526223_1_0" index="0" disallow="tram rail_urban rail rail_electric ship" speed="27.78" length="105.53" shape="2473.64,3132.91 2436.61,3034.09"/>
        <lane id=":1833526223_1_1" index="1" disallow="tram rail_urban rail rail_electric ship" speed="27.78" length="105.53" shape="2476.64,3131.80 2439.61,3032.97"/>
    </edge>
    <edge id=":1833526223_3" function="internal">
        <lane id=":1833526223_3_0" index="0" disallow="tram rail_urban rail rail_electric ship" speed="16.80" length="3.53" shape="2476.64,3131.80 2473.23,3130.88"/>
    </edge>
    <edge id=":1833526223_8" function="internal">
        <lane id=":1833526223_8_0" index="0" disallow="tram rail_urban rail rail_electric ship" speed="16.80" length="141.88" shape="2473.23,3130.88 2433.30,3120.19 2413.52,3100.61 2417.33,3073.04 2444.71,3037.49"/>
    </edge>
    <edge id=":1833526223_4" function="internal">
        <lane id=":1833526223_4_0" index="0" disallow="tram rail_urban rail rail_electric ship" speed="27.78" length="6.01" shape="2445.61,3030.74 2447.71,3036.36"/>
        <lane id=":1833526223_4_1" index="1" disallow="tram rail_urban rail rail_electric ship" speed="27.78" length="6.01" shape="2442.61,3031.86 2444.71,3037.49"/>
    </edge>
    <edge id=":1833526223_6" function="internal">
        <lane id=":1833526223_6_0" index="0" allow="bicycle pedestrian" speed="15.28" length="105.76" width="2.00" shape="2442.61,3031.86 2472.88,3133.19"/>
    </edge>
    <edge id=":1833526223_7" function="internal">
        <lane id=":1833526223_7_0" index="0" disallow="tram rail_urban rail rail_electric ship" speed="3.65" length="2.34" shape="2442.61,3031.86 2442.28,3033.26 2441.67,3033.92"/>
    </edge>
    <edge id=":1833526223_9" function="internal">
        <lane id=":1833526223_9_0" index="0" disallow="tram rail_urban rail rail_electric ship" speed="3.65" length="2.34" shape="2441.67,3033.92 2440.78,3033.82 2439.61,3032.97"/>
    </edge>
    <edge id=":3086231393_0" function="internal">
        <lane id=":3086231393_0_0" index="0" disallow="tram rail_urban rail rail_electric ship" speed="3.65" length="4.67" shape="4356.31,2425.07 4357.74,2425.30 4358.43,2425.86 4358.40,2426.76 4357.64,2427.98"/>
    </edge>
    <edge id=":3092185989_0" function="internal">
        <lane id=":3092185989_0_0" index="0" disallow="tram rail_urban rail rail_electric ship" speed="3.65" length="4.67" shape="50.03,3979.86 48.82,3979.09 48.40,3978.30 48.78,3977.49 49.96,3976.66"/>
    </edge>
    <edge id=":3092186030_0" function="internal">
        <lane id=":3092186030_0_0" index="0" disallow="tram rail_urban rail rail_electric ship" speed="3.65" length="4.67" shape="1943.87,4495.18 1942.73,4496.06 1941.84,4496.19 1941.21,4495.55 1940.84,4494.16"/>
    </edge>
    <edge id=":3092186035_0" function="internal">
        <lane id=":3092186035_0_0" index="0" disallow="tram rail_urban rail rail_electric ship" speed="3.65" length="4.67" shape="1772.00,4507.88 1771.27,4509.12 1770.49,4509.56 1769.67,4509.21 1768.81,4508.05"/>
    </edge>
    <edge id=":3092186065_0" function="internal">
        <lane id=":3092186065_0_0" index="0" disallow="tram rail_urban rail rail_electric ship" speed="3.65" length="4.67" shape="401.35,5032.60 400.19,5033.46 399.30,5033.56 398.69,5032.91 398.35,5031.51"/>
    </edge>
    <edge id=":313271012_0" function="internal">
        <lane id=":313271012_0_0" index="0" disallow="tram rail_urban rail rail_electric ship" speed="27.78" length="22.34" shape="2541.91,3632.76 2539.91,3610.41"/>
        <lane id=":313271012_0_1" index="1" disallow="tram rail_urban rail rail_electric ship" speed="27.78" length="22.34" shape="2545.08,3632.35 2543.10,3610.20"/>
    </edge>
    <edge id=":313271012_2" function="internal">
        <lane id=":313271012_2_0" index="0" disallow="tram rail_urban rail rail_electric ship" speed="11.15" length="6.38" shape="2545.08,3632.35 2545.36,3627.71 2546.13,3626.15"/>
    </edge>
    <edge id=":313271012_3" function="internal">
        <lane id=":313271012_3_0" index="0" disallow="tram rail_urban rail rail_electric ship" speed="3.65" length="2.34" shape="2545.08,3632.35 2545.72,3631.05 2546.46,3630.55"/>
    </edge>
    <edge id=":313271012_11" function="internal">
        <lane id=":313271012_11_0" index="0" disallow="tram rail_urban rail rail_electric ship" speed="11.15" length="15.07" shape="2546.13,3626.15 2547.45,3623.49 2551.34,3619.66 2557.04,3616.24"/>
    </edge>
    <edge id=":313271012_12" function="internal">
        <lane id=":313271012_12_0" index="0" disallow="tram rail_urban rail rail_electric ship" speed="3.65" length="2.34" shape="2546.46,3630.55 2547.31,3630.85 2548.25,3631.94"/>
    </edge>
    <edge id=":313271012_4" function="internal">
        <lane id=":313271012_4_0" index="0" disallow="tram rail_urban rail rail_electric ship" speed="8.93" length="13.49" shape="2559.84,3622.00 2555.91,3624.25 2553.20,3626.59 2551.71,3629.01 2551.43,3631.53"/>
    </edge>
    <edge id=":313271012_5" function="internal">
        <lane id=":313271012_5_0" index="0" disallow="tram rail_urban rail rail_electric ship" speed="8.84" length="22.78" shape="2558.44,3619.12 2552.11,3621.18 2547.45,3620.38 2544.44,3616.72 2543.10,3610.20"/>
    </edge>
    <edge id=":313271012_6" function="internal">
        <lane id=":313271012_6_0" index="0" disallow="tram rail_urban rail rail_electric ship" speed="3.65" length="4.67" shape="2558.44,3619.12 2557.01,3618.93 2556.30,3618.38 2556.31,3617.49 2557.04,3616.24"/>
    </edge>
    <edge id=":313271012_7" function="internal">
        <lane id=":313271012_7_0" index="0" disallow="tram rail_urban rail rail_electric ship" speed="5.83" length="9.13" shape="2549.49,3609.79 2550.03,3612.40 2551.23,3613.87 2553.10,3614.19 2555.64,3613.37"/>
    </edge>
    <edge id=":313271012_8" function="internal">
        <lane id=":313271012_8_0" index="0" disallow="tram rail_urban rail rail_electric ship" speed="27.78" length="21.92" shape="2549.49,3609.79 2551.43,3631.53"/>
        <lane id=":313271012_8_1" index="1" disallow="tram rail_urban rail rail_electric ship" speed="27.78" length="21.92" shape="2546.29,3610.00 2548.25,3631.94"/>
    </edge>
    <edge id=":313271012_10" function="internal">
        <lane id=":313271012_10_0" index="0" disallow="tram rail_urban rail rail_electric ship" speed="3.65" length="2.34" shape="2546.29,3610.00 2545.57,3611.24 2544.80,3611.70"/>
    </edge>
    <edge id=":313271012_13" function="internal">
        <lane id=":313271012_13_0" index="0" disallow="tram rail_urban rail rail_electric ship" speed="3.65" length="2.34" shape="2544.80,3611.70 2543.98,3611.35 2543.10,3610.20"/>
    </edge>
    <edge id=":3549795056_0" function="internal">
        <lane id=":3549795056_0_0" index="0" disallow="tram rail_urban rail rail_electric ship" speed="3.65" length="4.67" shape="2700.33,-1.00 2701.70,-1.44 2702.58,-1.25 2702.95,-0.44 2702.83,1.00"/>
    </edge>
    <edge id=":4061572508_0" function="internal">
        <lane id=":4061572508_0_0" index="0" allow="bicycle pedestrian" speed="2.78" length="3.73" width="2.00" shape="2751.29,4499.12 2750.33,4495.51"/>
    </edge>
    <edge id=":429202211_0" function="internal">
        <lane id=":429202211_0_0" index="0" disallow="tram rail_urban rail rail_electric ship" speed="5.79" length="9.15" shape="975.60,4076.93 974.38,4074.53 972.84,4073.45 970.96,4073.67 968.76,4075.21"/>
    </edge>
    <edge id=":429202211_1" function="internal">
        <lane id=":429202211_1_0" index="0" disallow="tram rail_urban rail rail_electric ship" speed="10.46" length="17.42" shape="975.60,4076.93 973.95,4071.11 973.40,4066.40 973.94,4062.79 975.58,4060.29"/>
    </edge>
    <edge id=":429202211_2" function="internal">
        <lane id=":429202211_2_0" index="0" disallow="tram rail_urban rail rail_electric ship" speed="3.65" length="4.67" shape="975.60,4076.93 975.96,4075.53 976.59,4074.89 977.48,4075.01 978.62,4075.88"/>
    </edge>
    <edge id=":429202211_3" function="internal">
        <lane id=":429202211_3_0" index="0" disallow="tram rail_urban rail rail_electric ship" speed="8.60" length="11.53" shape="979.84,4065.07 978.35,4067.01 977.64,4069.46 977.74,4072.42 978.62,4075.88"/>
    </edge>
    <edge id=":429202211_4" function="internal">
        <lane id=":429202211_4_0" index="0" disallow="tram rail_urban rail rail_electric ship" speed="27.78" length="15.05" shape="979.84,4065.07 968.76,4075.21"/>
        <lane id=":429202211_4_1" index="1" disallow="tram rail_urban rail rail_electric ship" speed="27.78" length="15.05" shape="977.71,4062.68 966.59,4072.86"/>
    </edge>
    <edge id=":429202211_6" function="internal">
        <lane id=":429202211_6_0" index="0" disallow="tram rail_urban rail rail_electric ship" speed="3.65" length="2.34" shape="977.71,4062.68 976.28,4062.88 975.45,4062.55"/>
    </edge>
    <edge id=":429202211_11" function="internal">
        <lane id=":429202211_11_0" index="0" disallow="tram rail_urban rail rail_electric ship" speed="3.65" length="2.34" shape="975.45,4062.55 975.22,4061.69 975.58,4060.29"/>
    </edge>
    <edge id=":429202211_7" function="internal">
        <lane id=":429202211_7_0" index="0" disallow="tram rail_urban rail rail_electric ship" speed="27.78" length="15.17" shape="962.24,4068.17 973.45,4057.91"/>
        <lane id=":429202211_7_1" index="1" disallow="tram rail_urban rail rail_electric ship" speed="27.78" length="15.17" shape="964.41,4070.51 975.58,4060.29"/>
    </edge>
    <edge id=":429202211_9" function="internal">
        <lane id=":429202211_9_0" index="0" disallow="tram rail_urban rail rail_electric ship" speed="8.18" length="6.47" shape="964.41,4070.51 968.81,4067.60 970.00,4067.57"/>
    </edge>
    <edge id=":429202211_10" function="internal">
        <lane id=":429202211_10_0" index="0" disallow="tram rail_urban rail rail_electric ship" speed="3.65" length="2.34" shape="964.41,4070.51 965.83,4070.29 966.67,4070.60"/>
    </edge>
    <edge id=":429202211_12" function="internal">
        <lane id=":429202211_12_0" index="0" disallow="tram rail_urban rail rail_electric ship" speed="8.18" length="13.16" shape="970.00,4067.57 972.65,4067.52 975.92,4070.28 978.62,4075.88"/>
    </edge>
    <edge id=":429202211_13" function="internal">
        <lane id=":429202211_13_0" index="0" disallow="tram rail_urban rail rail_electric ship" speed="3.65" length="2.34" shape="966.67,4070.60 966.92,4071.46 966.59,4072.86"/>
    </edge>
    <edge id=":429217796_0" function="internal">
        <lane id=":429217796_0_0" index="0" disallow="tram rail_urban rail rail_electric ship" speed="27.78" length="14.69" shape="2502.44,3680.87 2488.69,3686.17"/>
        <lane id=":429217796_0_1" index="1" disallow="tram rail_urban rail rail_electric ship" speed="27.78" length="14.69" shape="2501.25,3677.90 2487.58,3683.16"/>
    </edge>
    <edge id=":429217796_2" function="internal">
        <lane id=":429217796_2_0" index="0" disallow="tram rail_urban rail rail_electric ship" speed="8.64" length="5.42" shape="2501.25,3677.90 2497.34,3678.66 2495.96,3678.22"/>
    </edge>
    <edge id=":429217796_3" function="internal">
        <lane id=":429217796_3_0" index="0" disallow="tram rail_urban rail rail_electric ship" speed="3.65" length="2.34" shape="2501.25,3677.90 2499.84,3677.60 2499.17,3677.01"/>
    </edge>
    <edge id=":429217796_11" function="internal">
        <lane id=":429217796_11_0" index="0" disallow="tram rail_urban rail rail_electric ship" speed="8.64" length="11.54" shape="2495.96,3678.22 2493.94,3677.58 2491.04,3674.68 2488.64,3669.94"/>
    </edge>
    <edge id=":429217796_12" function="internal">
        <lane id=":429217796_12_0" index="0" disallow="tram rail_urban rail rail_electric ship" speed="3.65" length="2.34" shape="2499.17,3677.01 2499.24,3676.12 2500.05,3674.93"/>
    </edge>
    <edge id=":429217796_4" function="internal">
        <lane id=":429217796_4_0" index="0" disallow="tram rail_urban rail rail_electric ship" speed="6.47" length="9.03" shape="2491.63,3668.80 2492.83,3670.97 2494.44,3672.22 2496.45,3672.55 2498.86,3671.96"/>
    </edge>
    <edge id=":429217796_5" function="internal">
        <lane id=":429217796_5_0" index="0" disallow="tram rail_urban rail rail_electric ship" speed="8.66" length="16.94" shape="2491.63,3668.80 2492.99,3673.93 2492.77,3678.04 2490.97,3681.11 2487.58,3683.16"/>
    </edge>
    <edge id=":429217796_6" function="internal">
        <lane id=":429217796_6_0" index="0" disallow="tram rail_urban rail rail_electric ship" speed="3.65" length="4.67" shape="2491.63,3668.80 2491.31,3670.21 2490.70,3670.87 2489.81,3670.78 2488.64,3669.94"/>
    </edge>
    <edge id=":429217796_7" function="internal">
        <lane id=":429217796_7_0" index="0" disallow="tram rail_urban rail rail_electric ship" speed="6.49" length="9.05" shape="2485.37,3677.16 2487.56,3675.98 2488.83,3674.38 2489.19,3672.37 2488.64,3669.94"/>
    </edge>
    <edge id=":429217796_8" function="internal">
        <lane id=":429217796_8_0" index="0" disallow="tram rail_urban rail rail_electric ship" speed="27.78" length="14.50" shape="2485.37,3677.16 2498.86,3671.96"/>
        <lane id=":429217796_8_1" index="1" disallow="tram rail_urban rail rail_electric ship" speed="27.78" length="14.50" shape="2486.48,3680.16 2500.05,3674.93"/>
    </edge>
    <edge id=":429217796_10" function="internal">
        <lane id=":429217796_10_0" index="0" disallow="tram rail_urban rail rail_electric ship" speed="3.65" length="2.34" shape="2486.48,3680.16 2487.88,3680.50 2488.53,3681.11"/>
    </edge>
    <edge id=":429217796_13" function="internal">
        <lane id=":429217796_13_0" index="0" disallow="tram rail_urban rail rail_electric ship" speed="3.65" length="2.34" shape="2488.53,3681.11 2488.43,3682.00 2487.58,3683.16"/>
    </edge>
    <edge id=":429217798_0" function="internal">
        <lane id=":429217798_0_0" index="0" disallow="tram rail_urban rail rail_electric ship" speed="6.51" length="8.94" shape="2458.00,3527.17 2457.43,3524.79 2456.24,3523.16 2454.42,3522.27 2451.98,3522.12"/>
    </edge>
    <edge id=":429217798_1" function="internal">
        <lane id=":429217798_1_0" index="0" disallow="tram rail_urban rail rail_electric ship" speed="13.89" length="14.23" shape="2458.00,3527.17 2456.90,3512.98"/>
    </edge>
    <edge id=":429217798_2" function="internal">
        <lane id=":429217798_2_0" index="0" disallow="tram rail_urban rail rail_electric ship" speed="3.65" length="2.34" shape="2458.00,3527.17 2458.69,3525.90 2459.45,3525.43"/>
    </edge>
    <edge id=":429217798_9" function="internal">
        <lane id=":429217798_9_0" index="0" disallow="tram rail_urban rail rail_electric ship" speed="3.65" length="2.34" shape="2459.45,3525.43 2460.28,3525.75 2461.19,3526.87"/>
    </edge>
    <edge id=":429217798_3" function="internal">
        <lane id=":429217798_3_0" index="0" disallow="tram rail_urban rail rail_electric ship" speed="13.89" length="14.12" shape="2460.10,3512.79 2461.19,3526.87"/>
    </edge>
    <edge id=":429217798_4" function="internal">
        <lane id=":429217798_4_0" index="0" disallow="tram rail_urban rail rail_electric ship" speed="8.02" length="5.72" shape="2460.10,3512.79 2459.79,3516.61 2458.92,3518.29"/>
    </edge>
    <edge id=":429217798_5" function="internal">
        <lane id=":429217798_5_0" index="0" disallow="tram rail_urban rail rail_electric ship" speed="3.65" length="2.34" shape="2460.10,3512.79 2459.37,3514.03 2458.60,3514.48"/>
    </edge>
    <edge id=":429217798_10" function="internal">
        <lane id=":429217798_10_0" index="0" disallow="tram rail_urban rail rail_electric ship" speed="8.02" length="8.32" shape="2458.92,3518.29 2458.33,3519.43 2455.73,3521.27 2451.98,3522.12"/>
    </edge>
    <edge id=":429217798_11" function="internal">
        <lane id=":429217798_11_0" index="0" disallow="tram rail_urban rail rail_electric ship" speed="3.65" length="2.34" shape="2458.60,3514.48 2457.77,3514.13 2456.90,3512.98"/>
    </edge>
    <edge id=":429217798_6" function="internal">
        <lane id=":429217798_6_0" index="0" disallow="tram rail_urban rail rail_electric ship" speed="6.53" length="8.96" shape="2451.72,3518.93 2454.11,3518.39 2455.77,3517.22 2456.70,3515.41 2456.90,3512.98"/>
    </edge>
    <edge id=":429217798_7" function="internal">
        <lane id=":429217798_7_0" index="0" disallow="tram rail_urban rail rail_electric ship" speed="8.00" length="14.05" shape="2451.72,3518.93 2455.56,3519.16 2458.41,3520.56 2460.29,3523.13 2461.19,3526.87"/>
    </edge>
    <edge id=":429217798_8" function="internal">
        <lane id=":429217798_8_0" index="0" disallow="tram rail_urban rail rail_electric ship" speed="3.65" length="4.67" shape="2451.72,3518.93 2452.98,3519.63 2453.44,3520.39 2453.11,3521.22 2451.98,3522.12"/>
    </edge>
    <edge id=":429217800_0" function="internal">
        <lane id=":429217800_0_0" index="0" disallow="tram rail_urban rail rail_electric ship" speed="6.08" length="7.81" shape="2352.26,3417.25 2352.21,3415.11 2352.86,3413.47 2354.21,3412.34 2356.26,3411.71"/>
    </edge>
    <edge id=":429217800_1" function="internal">
        <lane id=":429217800_1_0" index="0" disallow="tram rail_urban rail rail_electric ship" speed="3.90" length="2.60" shape="2356.75,3414.87 2356.07,3415.08 2355.62,3415.46 2355.40,3416.00 2355.42,3416.72"/>
    </edge>
    <edge id=":429217807_0" function="internal">
        <lane id=":429217807_0_0" index="0" disallow="tram rail_urban rail rail_electric ship" speed="27.78" length="16.63" shape="2246.59,3797.09 2242.17,3799.51 2239.07,3801.06 2235.85,3802.29 2231.03,3803.75"/>
        <lane id=":429217807_0_1" index="1" disallow="tram rail_urban rail rail_electric ship" speed="27.78" length="16.63" shape="2245.06,3794.28 2240.82,3796.60 2237.85,3798.09 2234.76,3799.27 2230.14,3800.67"/>
    </edge>
    <edge id=":429217807_2" function="internal">
        <lane id=":429217807_2_0" index="0" disallow="tram rail_urban rail rail_electric ship" speed="8.29" length="5.97" shape="2245.06,3794.28 2240.55,3795.80 2239.37,3795.54"/>
    </edge>
    <edge id=":429217807_3" function="internal">
        <lane id=":429217807_3_0" index="0" disallow="tram rail_urban rail rail_electric ship" speed="3.65" length="2.34" shape="2245.06,3794.28 2243.62,3794.15 2242.89,3793.64"/>
    </edge>
    <edge id=":429217807_11" function="internal">
        <lane id=":429217807_11_0" index="0" disallow="tram rail_urban rail rail_electric ship" speed="8.29" length="12.58" shape="2239.37,3795.54 2236.89,3794.98 2234.09,3791.82 2232.16,3786.33"/>
    </edge>
    <edge id=":429217807_12" function="internal">
        <lane id=":429217807_12_0" index="0" disallow="tram rail_urban rail rail_electric ship" speed="3.65" length="2.34" shape="2242.89,3793.64 2242.86,3792.75 2243.53,3791.47"/>
    </edge>
    <edge id=":429217807_4" function="internal">
        <lane id=":429217807_4_0" index="0" disallow="tram rail_urban rail rail_electric ship" speed="5.99" length="9.08" shape="2235.28,3785.62 2236.20,3788.04 2237.63,3789.36 2239.56,3789.57 2242.00,3788.66"/>
    </edge>
    <edge id=":429217807_5" function="internal">
        <lane id=":429217807_5_0" index="0" disallow="tram rail_urban rail rail_electric ship" speed="9.06" length="17.69" shape="2235.28,3785.62 2236.04,3791.34 2235.44,3795.75 2233.47,3798.86 2230.14,3800.67"/>
    </edge>
    <edge id=":429217807_6" function="internal">
        <lane id=":429217807_6_0" index="0" disallow="tram rail_urban rail rail_electric ship" speed="3.65" length="4.67" shape="2235.28,3785.62 2234.76,3786.97 2234.07,3787.53 2233.20,3787.32 2232.16,3786.33"/>
    </edge>
    <edge id=":429217807_7" function="internal">
        <lane id=":429217807_7_0" index="0" disallow="tram rail_urban rail rail_electric ship" speed="7.00" length="10.14" shape="2228.37,3794.52 2230.59,3793.44 2231.97,3791.71 2232.49,3789.34 2232.16,3786.33"/>
    </edge>
    <edge id=":429217807_8" function="internal">
        <lane id=":429217807_8_0" index="0" disallow="tram rail_urban rail rail_electric ship" speed="27.78" length="15.24" shape="2228.37,3794.52 2232.59,3793.24 2235.42,3792.15 2238.12,3790.78 2242.00,3788.66"/>
        <lane id=":429217807_8_1" index="1" disallow="tram rail_urban rail rail_electric ship" speed="27.78" length="15.24" shape="2229.26,3797.60 2233.68,3796.25 2236.63,3795.12 2239.47,3793.69 2243.53,3791.47"/>
    </edge>
    <edge id=":429217807_10" function="internal">
        <lane id=":429217807_10_0" index="0" disallow="tram rail_urban rail rail_electric ship" speed="3.65" length="2.34" shape="2229.26,3797.60 2230.63,3798.03 2231.24,3798.69"/>
    </edge>
    <edge id=":429217807_13" function="internal">
        <lane id=":429217807_13_0" index="0" disallow="tram rail_urban rail rail_electric ship" speed="3.65" length="2.34" shape="2231.24,3798.69 2231.08,3799.57 2230.14,3800.67"/>
    </edge>
    <edge id=":429217812_0" function="internal">
        <lane id=":429217812_0_0" index="0" disallow="tram rail_urban rail rail_electric ship" speed="27.78" length="13.37" shape="1146.15,3846.99 1143.51,3849.88 1141.79,3851.93 1140.19,3854.08 1137.90,3857.25"/>
        <lane id=":429217812_0_1" index="1" disallow="tram rail_urban rail rail_electric ship" speed="27.78" length="13.37" shape="1143.81,3844.81 1141.09,3847.77 1139.32,3849.89 1137.68,3852.10 1135.32,3855.36"/>
    </edge>
    <edge id=":429217812_2" function="internal">
        <lane id=":429217812_2_0" index="0" disallow="tram rail_urban rail rail_electric ship" speed="9.70" length="4.50" shape="1143.81,3844.81 1141.15,3846.58 1139.85,3846.76"/>
    </edge>
    <edge id=":429217812_3" function="internal">
        <lane id=":429217812_3_0" index="0" disallow="tram rail_urban rail rail_electric ship" speed="3.65" length="2.34" shape="1143.81,3844.81 1142.40,3845.14 1141.55,3844.88"/>
    </edge>
    <edge id=":429217812_11" function="internal">
        <lane id=":429217812_11_0" index="0" disallow="tram rail_urban rail rail_electric ship" speed="9.70" length="12.02" shape="1139.85,3846.76 1137.69,3847.07 1133.41,3846.28 1128.32,3844.22"/>
    </edge>
    <edge id=":429217812_12" function="internal">
        <lane id=":429217812_12_0" index="0" disallow="tram rail_urban rail rail_electric ship" speed="3.65" length="2.34" shape="1141.55,3844.88 1141.24,3844.05 1141.47,3842.62"/>
    </edge>
    <edge id=":429217812_4" function="internal">
        <lane id=":429217812_4_0" index="0" disallow="tram rail_urban rail rail_electric ship" speed="7.72" length="10.18" shape="1129.74,3841.35 1132.52,3842.37 1135.01,3842.56 1137.22,3841.91 1139.13,3840.44"/>
    </edge>
    <edge id=":429217812_5" function="internal">
        <lane id=":429217812_5_0" index="0" disallow="tram rail_urban rail rail_electric ship" speed="8.41" length="17.87" shape="1129.74,3841.35 1134.45,3844.37 1136.95,3847.71 1137.24,3851.37 1135.32,3855.36"/>
    </edge>
    <edge id=":429217812_6" function="internal">
        <lane id=":429217812_6_0" index="0" disallow="tram rail_urban rail rail_electric ship" speed="3.65" length="4.67" shape="1129.74,3841.35 1130.46,3842.59 1130.47,3843.49 1129.75,3844.03 1128.32,3844.22"/>
    </edge>
    <edge id=":429217812_7" function="internal">
        <lane id=":429217812_7_0" index="0" disallow="tram rail_urban rail rail_electric ship" speed="6.17" length="9.05" shape="1130.14,3851.59 1131.33,3849.34 1131.43,3847.36 1130.42,3845.66 1128.32,3844.22"/>
    </edge>
    <edge id=":429217812_8" function="internal">