<?xml version="1.0" encoding="UTF-8"?>

<!-- generated on Tue Sep 17 10:19:14 2019 by Eclipse SUMO duarouter Version 1.2.0
<configuration xmlns:xsi="http://www.w3.org/2001/XMLSchema-instance" xsi:noNamespaceSchemaLocation="http://sumo.dlr.de/xsd/duarouterConfiguration.xsd">

    <input>
        <net-file value="/home/werer/sumo/tools/2019-09-17-10-19-02/osm.net.xml"/>
        <route-files value="/home/werer/sumo/tools/2019-09-17-10-19-02/osm.passenger.trips.xml"/>
    </input>

    <output>
        <output-file value="/home/werer/sumo/tools/2019-09-17-10-19-02/osm.passenger.trips.xml.tmp"/>
        <write-trips value="true"/>
    </output>

    <time>
        <begin value="0"/>
        <end value="3600.0"/>
    </time>

    <report>
        <no-warnings value="true"/>
        <ignore-errors value="true"/>
        <no-step-log value="true"/>
    </report>

</configuration>
-->

<routes xmlns:xsi="http://www.w3.org/2001/XMLSchema-instance" xsi:noNamespaceSchemaLocation="http://sumo.dlr.de/xsd/routes_file.xsd">
    <vType id="veh_passenger" vClass="passenger"/>
    <trip id="veh0" type="veh_passenger" depart="0.00" departLane="best" departSpeed="max" from="-382403297" to="-42836295"/>
    <trip id="veh2" type="veh_passenger" depart="0.39" departLane="best" departSpeed="max" from="47638902" to="-23637475#0"/>
    <trip id="veh3" type="veh_passenger" depart="0.58" departLane="best" departSpeed="max" from="222114282" to="-23543754"/>
    <trip id="veh5" type="veh_passenger" depart="0.97" departLane="best" departSpeed="max" from="-159540550#8" to="-31331144"/>
    <trip id="veh6" type="veh_passenger" depart="1.16" departLane="best" departSpeed="max" from="30015999" to="23637543"/>
    <trip id="veh8" type="veh_passenger" depart="1.55" departLane="best" departSpeed="max" from="42836295" to="-222114282"/>
    <trip id="veh9" type="veh_passenger" depart="1.74" departLane="best" departSpeed="max" from="42836179#0" to="30137832#1"/>
    <trip id="veh10" type="veh_passenger" depart="1.93" departLane="best" departSpeed="max" from="-42836320" to="-29495319#0"/>
    <trip id="veh11" type="veh_passenger" depart="2.13" departLane="best" departSpeed="max" from="-23637543" to="-23637475#0"/>
    <trip id="veh12" type="veh_passenger" depart="2.32" departLane="best" departSpeed="max" from="42836317" to="29986379#3"/>
    <trip id="veh13" type="veh_passenger" depart="2.51" departLane="best" departSpeed="max" from="42836179#0" to="30137885"/>
    <trip id="veh14" type="veh_passenger" depart="2.71" departLane="best" departSpeed="max" from="23637475#0" to="95891471#1"/>
    <trip id="veh15" type="veh_passenger" depart="2.90" departLane="best" departSpeed="max" from="-712274899" to="27198559#1"/>
    <trip id="veh16" type="veh_passenger" depart="3.09" departLane="best" departSpeed="max" from="42836311" to="29994275"/>
    <trip id="veh17" type="veh_passenger" depart="3.29" departLane="best" departSpeed="max" from="42836317" to="27380643#1"/>
    <trip id="veh18" type="veh_passenger" depart="3.48" departLane="best" departSpeed="max" from="30134200#0" to="-23623484"/>
    <trip id="veh19" type="veh_passenger" depart="3.67" departLane="best" departSpeed="max" from="-30602290" to="-48119686"/>
    <trip id="veh20" type="veh_passenger" depart="3.87" departLane="best" departSpeed="max" from="-23637543" to="-42836295"/>
    <trip id="veh21" type="veh_passenger" depart="4.06" departLane="best" departSpeed="max" from="-27198559#1" to="-42836317"/>
    <trip id="veh22" type="veh_passenger" depart="4.25" departLane="best" departSpeed="max" from="30015999" to="-79191774#0"/>
    <trip id="veh23" type="veh_passenger" depart="4.45" departLane="best" departSpeed="max" from="-712274899" to="-31331144"/>
    <trip id="veh24" type="veh_passenger" depart="4.64" departLane="best" departSpeed="max" from="-382403297" to="712274899"/>
    <trip id="veh25" type="veh_passenger" depart="4.83" departLane="best" departSpeed="max" from="30015999" to="29986379#3"/>
    <trip id="veh27" type="veh_passenger" depart="5.22" departLane="best" departSpeed="max" from="-29994853#1" to="-79191774#0"/>
    <trip id="veh28" type="veh_passenger" depart="5.41" departLane="best" departSpeed="max" from="79191774#0" to="29994751"/>
    <trip id="veh30" type="veh_passenger" depart="5.80" departLane="best" departSpeed="max" from="42836311" to="30603313"/>
    <trip id="veh31" type="veh_passenger" depart="5.99" departLane="best" departSpeed="max" from="-30602290" to="-23543754"/>
    <trip id="veh33" type="veh_passenger" depart="6.38" departLane="best" departSpeed="max" from="42956750" to="-48119686"/>
    <trip id="veh34" type="veh_passenger" depart="6.57" departLane="best" departSpeed="max" from="30016382#0" to="159540550#6"/>
    <trip id="veh35" type="veh_passenger" depart="6.77" departLane="best" departSpeed="max" from="48119686" to="188236642"/>
    <trip id="veh36" type="veh_passenger" depart="6.96" departLane="best" departSpeed="max" from="-30603313" to="-42836311"/>
    <trip id="veh37" type="veh_passenger" depart="7.15" departLane="best" departSpeed="max" from="27122144#0" to="-42836317"/>
    <trip id="veh38" type="veh_passenger" depart="7.35" departLane="best" departSpeed="max" from="29495319#0" to="47658395#2"/>
    <trip id="veh39" type="veh_passenger" depart="7.54" departLane="best" departSpeed="max" from="-96107124#4" to="-31331144"/>
    <trip id="veh40" type="veh_passenger" depart="7.73" departLane="best" departSpeed="max" from="79191774#0" to="23623516"/>
    <trip id="veh41" type="veh_passenger" depart="7.93" departLane="best" departSpeed="max" from="-23637543" to="-23623484"/>
    <trip id="veh42" type="veh_passenger" depart="8.12" departLane="best" departSpeed="max" from="-27198559#1" to="29994275"/>
    <trip id="veh43" type="veh_passenger" depart="8.31" departLane="best" departSpeed="max" from="42836179#0" to="159540550#6"/>
    <trip id="veh44" type="veh_passenger" depart="8.51" departLane="best" departSpeed="max" from="-22885812#1" to="-79191774#0"/>
    <trip id="veh45" type="veh_passenger" depart="8.70" departLane="best" departSpeed="max" from="79191774#0" to="23637541#1"/>
    <trip id="veh46" type="veh_passenger" depart="8.89" departLane="best" departSpeed="max" from="79191774#0" to="42836321#2"/>
    <trip id="veh47" type="veh_passenger" depart="9.09" departLane="best" departSpeed="max" from="-159540550#8" to="30137885"/>
    <trip id="veh48" type="veh_passenger" depart="9.28" departLane="best" departSpeed="max" from="30016950#0" to="23637543"/>
    <trip id="veh49" type="veh_passenger" depart="9.47" departLane="best" departSpeed="max" from="-382403297" to="29994751"/>
    <trip id="veh51" type="veh_passenger" depart="9.86" departLane="best" departSpeed="max" from="22994936#0" to="712333488#1"/>
    <trip id="veh52" type="veh_passenger" depart="10.05" departLane="best" departSpeed="max" from="42956750" to="-42836317"/>
    <trip id="veh54" type="veh_passenger" depart="10.44" departLane="best" departSpeed="max" from="48119686" to="42836321#2"/>
    <trip id="veh55" type="veh_passenger" depart="10.63" departLane="best" departSpeed="max" from="-42763010#1" to="29994751"/>
    <trip id="veh56" type="veh_passenger" depart="10.83" departLane="best" departSpeed="max" from="29995114#0" to="-29495319#0"/>
    <trip id="veh57" type="veh_passenger" depart="11.02" departLane="best" departSpeed="max" from="31331144" to="23637543"/>
    <trip id="veh58" type="veh_passenger" depart="11.21" departLane="best" departSpeed="max" from="31331144" to="23637543"/>
    <trip id="veh59" type="veh_passenger" depart="11.41" departLane="best" departSpeed="max" from="-159540550#8" to="-511316582#0"/>
    <trip id="veh60" type="veh_passenger" depart="11.60" departLane="best" departSpeed="max" from="-159540550#8" to="712274899"/>
    <trip id="veh61" type="veh_passenger" depart="11.79" departLane="best" departSpeed="max" from="42956750" to="42836316"/>
    <trip id="veh62" type="veh_passenger" depart="11.99" departLane="best" departSpeed="max" from="-42836316" to="-23623484"/>
    <trip id="veh63" type="veh_passenger" depart="12.18" departLane="best" departSpeed="max" from="42956750" to="712333488#1"/>
    <trip id="veh64" type="veh_passenger" depart="12.37" departLane="best" departSpeed="max" from="-23637543" to="22885812#1"/>
    <trip id="veh65" type="veh_passenger" depart="12.57" departLane="best" departSpeed="max" from="31331144" to="-27122144#0"/>
    <trip id="veh66" type="veh_passenger" depart="12.76" departLane="best" departSpeed="max" from="23543754" to="27198558#1"/>
    <trip id="veh67" type="veh_passenger" depart="12.95" departLane="best" departSpeed="max" from="-30603313" to="42836321#2"/>
    <trip id="veh68" type="veh_passenger" depart="13.15" departLane="best" departSpeed="max" from="23637550" to="30137885"/>
    <trip id="veh69" type="veh_passenger" depart="13.34" departLane="best" departSpeed="max" from="-30137885" to="-48119686"/>
    <trip id="veh70" type="veh_passenger" depart="13.53" departLane="best" departSpeed="max" from="79191774#0" to="29994751"/>
    <trip id="veh71" type="veh_passenger" depart="13.73" departLane="best" departSpeed="max" from="-29994275" to="-42836295"/>
    <trip id="veh72" type="veh_passenger" depart="13.92" departLane="best" departSpeed="max" from="-42836320" to="27380643#1"/>
    <trip id="veh73" type="veh_passenger" depart="14.11" departLane="best" departSpeed="max" from="-30602290" to="-31331144"/>
    <trip id="veh74" type="veh_passenger" depart="14.31" departLane="best" departSpeed="max" from="-30602290" to="704158515#2"/>
    <trip id="veh75" type="veh_passenger" depart="14.50" departLane="best" departSpeed="max" from="42836317" to="-23623485"/>
    <trip id="veh76" type="veh_passenger" depart="14.69" departLane="best" departSpeed="max" from="-30602290" to="29994853#1"/>
    <trip id="veh78" type="veh_passenger" depart="15.08" departLane="best" departSpeed="max" from="48119686" to="27380643#1"/>
    <trip id="veh79" type="veh_passenger" depart="15.27" departLane="best" departSpeed="max" from="23543754" to="30603313"/>
    <trip id="veh80" type="veh_passenger" depart="15.46" departLane="best" departSpeed="max" from="42836179#0" to="-31331144"/>
    <trip id="veh82" type="veh_passenger" depart="15.85" departLane="best" departSpeed="max" from="222114282" to="228416337"/>
    <trip id="veh83" type="veh_passenger" depart="16.04" departLane="best" departSpeed="max" from="79191774#0" to="-23637475#0"/>
    <trip id="veh84" type="veh_passenger" depart="16.24" departLane="best" departSpeed="max" from="-96107124#4" to="-511316582#0"/>
    <trip id="veh85" type="veh_passenger" depart="16.43" departLane="best" departSpeed="max" from="42836317" to="-42836311"/>
    <trip id="veh86" type="veh_passenger" depart="16.62" departLane="best" departSpeed="max" from="-30137885" to="188236642"/>
    <trip id="veh87" type="veh_passenger" depart="16.82" departLane="best" departSpeed="max" from="222114282" to="-42836317"/>
    <trip id="veh88" type="veh_passenger" depart="17.01" departLane="best" departSpeed="max" from="-30603313" to="712274899"/>
    <trip id="veh89" type="veh_passenger" depart="17.20" departLane="best" departSpeed="max" from="22994936#0" to="42836321#2"/>
    <trip id="veh90" type="veh_passenger" depart="17.40" departLane="best" departSpeed="max" from="23637550" to="-23623484"/>
    <trip id="veh91" type="veh_passenger" depart="17.59" departLane="best" departSpeed="max" from="79191774#0" to="42836316"/>
    <trip id="veh93" type="veh_passenger" depart="17.98" departLane="best" departSpeed="max" from="23623484" to="-31331144"/>
    <trip id="veh94" type="veh_passenger" depart="18.17" departLane="best" departSpeed="max" from="-96107124#4" to="-23623484"/>
    <trip id="veh95" type="veh_passenger" depart="18.36" departLane="best" departSpeed="max" from="-712274899" to="96107124#4"/>
    <trip id="veh96" type="veh_passenger" depart="18.56" departLane="best" departSpeed="max" from="22994936#0" to="159540550#6"/>
    <trip id="veh97" type="veh_passenger" depart="18.75" departLane="best" departSpeed="max" from="511316582#0" to="96107124#4"/>
    <trip id="veh98" type="veh_passenger" depart="18.94" departLane="best" departSpeed="max" from="23637550" to="30137885"/>
    <trip id="veh99" type="veh_passenger" depart="19.14" departLane="best" departSpeed="max" from="-29994853#1" to="-48119686"/>
    <trip id="veh100" type="veh_passenger" depart="19.33" departLane="best" departSpeed="max" from="79191774#0" to="27380643#1"/>
    <trip id="veh102" type="veh_passenger" depart="19.72" departLane="best" departSpeed="max" from="-22885812#1" to="27380643#1"/>
    <trip id="veh103" type="veh_passenger" depart="19.91" departLane="best" departSpeed="max" from="23623485" to="42836320"/>
    <trip id="veh104" type="veh_passenger" depart="20.10" departLane="best" departSpeed="max" from="-23637543" to="-31331144"/>
    <trip id="veh106" type="veh_passenger" depart="20.49" departLane="best" departSpeed="max" from="-30602290" to="-23637550"/>
    <trip id="veh107" type="veh_passenger" depart="20.68" departLane="best" departSpeed="max" from="47638902" to="-42836311"/>
    <trip id="veh108" type="veh_passenger" depart="20.88" departLane="best" from="159540550#5" to="27380643#1"/>
    <trip id="veh109" type="veh_passenger" depart="21.07" departLane="best" departSpeed="max" from="23637475#0" to="712274899"/>
    <trip id="veh110" type="veh_passenger" depart="21.26" departLane="best" departSpeed="max" from="-30602290" to="159540550#6"/>
    <trip id="veh113" type="veh_passenger" depart="21.84" departLane="best" departSpeed="max" from="-22885812#1" to="188236642"/>
    <trip id="veh114" type="veh_passenger" depart="22.04" departLane="best" departSpeed="max" from="79191774#0" to="96107124#4"/>
    <trip id="veh115" type="veh_passenger" depart="22.23" departLane="best" departSpeed="max" from="-22885812#1" to="-31331144"/>
    <trip id="veh116" type="veh_passenger" depart="22.42" departLane="best" departSpeed="max" from="-30603313" to="712274899"/>
    <trip id="veh117" type="veh_passenger" depart="22.62" departLane="best" departSpeed="max" from="42956750" to="47638901"/>
    <trip id="veh118" type="veh_passenger" depart="22.81" departLane="best" departSpeed="max" from="-712274899" to="-29495319#0"/>
    <trip id="veh119" type="veh_passenger" depart="23.00" departLane="best" departSpeed="max" from="42836311" to="30137832#1"/>
    <trip id="veh120" type="veh_passenger" depart="23.20" departLane="best" departSpeed="max" from="29995114#0" to="96107124#4"/>
    <trip id="veh121" type="veh_passenger" depart="23.39" departLane="best" departSpeed="max" from="30016382#0" to="-222114282"/>
    <trip id="veh122" type="veh_passenger" depart="23.58" departLane="best" departSpeed="max" from="42836295" to="-48119686"/>
    <trip id="veh123" type="veh_passenger" depart="23.78" departLane="best" departSpeed="max" from="30016382#0" to="712274899"/>
    <trip id="veh124" type="veh_passenger" depart="23.97" departLane="best" departSpeed="max" from="-29994751" to="-23637550"/>
    <trip id="veh125" type="veh_passenger" depart="24.16" departLane="best" departSpeed="max" from="-382403297" to="29986379#3"/>
    <trip id="veh126" type="veh_passenger" depart="24.36" departLane="best" departSpeed="max" from="30267533" to="-31331144"/>
    <trip id="veh127" type="veh_passenger" depart="24.55" departLane="best" departSpeed="max" from="30015999" to="-42836317"/>
    <trip id="veh128" type="veh_passenger" depart="24.74" departLane="best" departSpeed="max" from="23623484" to="704158515#2"/>
    <trip id="veh129" type="veh_passenger" depart="24.94" departLane="best" departSpeed="max" from="42836311" to="-23637475#0"/>
    <trip id="veh130" type="veh_passenger" depart="25.13" departLane="best" departSpeed="max" from="222114282" to="-42836317"/>
    <trip id="veh132" type="veh_passenger" depart="25.52" departLane="best" departSpeed="max" from="30015999" to="-42836311"/>
    <trip id="veh133" type="veh_passenger" depart="25.71" departLane="best" departSpeed="max" from="30601439" to="27198559#1"/>
    <trip id="veh134" type="veh_passenger" depart="25.90" departLane="best" departSpeed="max" from="-22885812#1" to="47638901"/>
    <trip id="veh135" type="veh_passenger" depart="26.10" departLane="best" departSpeed="max" from="48119686" to="23637543"/>
    <trip id="veh136" type="veh_passenger" depart="26.29" departLane="best" departSpeed="max" from="42836311" to="27380643#1"/>
    <trip id="veh137" type="veh_passenger" depart="26.48" departLane="best" departSpeed="max" from="-29994751" to="-27122144#0"/>
    <trip id="veh138" type="veh_passenger" depart="26.68" departLane="best" departSpeed="max" from="-42836316" to="576628697#1"/>
    <trip id="veh139" type="veh_passenger" depart="26.87" departLane="best" departSpeed="max" from="42836179#0" to="42836321#2"/>
    <trip id="veh140" type="veh_passenger" depart="27.06" departLane="best" departSpeed="max" from="47638902" to="-31331144"/>
    <trip id="veh141" type="veh_passenger" depart="27.26" departLane="best" departSpeed="max" from="-30603313" to="-23637550"/>
    <trip id="veh142" type="veh_passenger" depart="27.45" departLane="best" departSpeed="max" from="31331144" to="47638901"/>
    <trip id="veh143" type="veh_passenger" depart="27.64" departLane="best" departSpeed="max" from="-96107124#4" to="29994275"/>
    <trip id="veh144" type="veh_passenger" depart="27.84" departLane="best" departSpeed="max" from="-29994853#1" to="712274899"/>
    <trip id="veh145" type="veh_passenger" depart="28.03" departLane="best" departSpeed="max" from="42836317" to="95891471#1"/>
    <trip id="veh146" type="veh_passenger" depart="28.22" departLane="best" departSpeed="max" from="42836295" to="47638901"/>
    <trip id="veh148" type="veh_passenger" depart="28.61" departLane="best" departSpeed="max" from="-42836320" to="712274899"/>
    <trip id="veh149" type="veh_passenger" depart="28.80" departLane="best" departSpeed="max" from="42836179#0" to="42836321#2"/>
    <trip id="veh150" type="veh_passenger" depart="29.00" departLane="best" departSpeed="max" from="42836295" to="-42836317"/>
    <trip id="veh151" type="veh_passenger" depart="29.19" departLane="best" from="360166621#3" to="-23637550"/>
    <trip id="veh152" type="veh_passenger" depart="29.38" departLane="best" departSpeed="max" from="42956750" to="42836321#2"/>
    <trip id="veh154" type="veh_passenger" depart="29.77" departLane="best" departSpeed="max" from="23543754" to="-48119686"/>
    <trip id="veh155" type="veh_passenger" depart="29.96" departLane="best" departSpeed="max" from="42836179#0" to="-42836295"/>
    <trip id="veh156" type="veh_passenger" depart="30.16" departLane="best" departSpeed="max" from="-159540550#8" to="-31331144"/>
    <trip id="veh157" type="veh_passenger" depart="30.35" departLane="best" departSpeed="max" from="79191774#0" to="-42836317"/>
    <trip id="veh158" type="veh_passenger" depart="30.54" departLane="best" departSpeed="max" from="30015999" to="159540550#6"/>
    <trip id="veh159" type="veh_passenger" depart="30.74" departLane="best" departSpeed="max" from="79191774#0" to="23637543"/>
    <trip id="veh160" type="veh_passenger" depart="30.93" departLane="best" departSpeed="max" from="48119686" to="-23637550"/>
    <trip id="veh162" type="veh_passenger" depart="31.32" departLane="best" departSpeed="max" from="79191774#0" to="-42836317"/>
    <trip id="veh164" type="veh_passenger" depart="31.70" departLane="best" departSpeed="max" from="30267533" to="-48119686"/>
    <trip id="veh165" type="veh_passenger" depart="31.90" departLane="best" departSpeed="max" from="29995114#0" to="23623516"/>
    <trip id="veh167" type="veh_passenger" depart="32.28" departLane="best" departSpeed="max" from="-30603313" to="30137832#1"/>
    <trip id="veh168" type="veh_passenger" depart="32.48" departLane="best" departSpeed="max" from="-159540550#8" to="712274899"/>
    <trip id="veh169" type="veh_passenger" depart="32.67" departLane="best" departSpeed="max" from="23637550" to="30137885"/>
    <trip id="veh171" type="veh_passenger" depart="33.06" departLane="best" departSpeed="max" from="-712274899" to="-23623485"/>
    <trip id="veh172" type="veh_passenger" depart="33.25" departLane="best" departSpeed="max" from="30267533" to="-48119686"/>
    <trip id="veh173" type="veh_passenger" depart="33.44" departLane="best" departSpeed="max" from="-42836316" to="159540550#6"/>
    <trip id="veh174" type="veh_passenger" depart="33.64" departLane="best" departSpeed="max" from="-96107124#4" to="-48119686"/>
    <trip id="veh175" type="veh_passenger" depart="33.83" departLane="best" departSpeed="max" from="-29994275" to="159540550#6"/>
    <trip id="veh177" type="veh_passenger" depart="34.22" departLane="best" departSpeed="max" from="47638902" to="29994275"/>
    <trip id="veh178" type="veh_passenger" depart="34.41" departLane="best" departSpeed="max" from="-42763010#1" to="23637543"/>
    <trip id="veh179" type="veh_passenger" depart="34.60" departLane="best" from="-159540550#4" to="-48119686"/>
    <trip id="veh180" type="veh_passenger" depart="34.80" departLane="best" departSpeed="max" from="222114282" to="27380643#1"/>
    <trip id="veh181" type="veh_passenger" depart="34.99" departLane="best" departSpeed="max" from="30016382#0" to="189878773#1"/>
    <trip id="veh182" type="veh_passenger" depart="35.18" departLane="best" departSpeed="max" from="22994936#0" to="-31331144"/>
    <trip id="veh183" type="veh_passenger" depart="35.38" departLane="best" departSpeed="max" from="23543754" to="704158515#2"/>
    <trip id="veh185" type="veh_passenger" depart="35.76" departLane="best" departSpeed="max" from="-23637543" to="23623516"/>
    <trip id="veh186" type="veh_passenger" depart="35.96" departLane="best" departSpeed="max" from="30015999" to="-511316582#0"/>
    <trip id="veh188" type="veh_passenger" depart="36.34" departLane="best" departSpeed="max" from="30016950#0" to="-42836295"/>
    <trip id="veh189" type="veh_passenger" depart="36.54" departLane="best" departSpeed="max" from="-30137885" to="-23543754"/>
    <trip id="veh190" type="veh_passenger" depart="36.73" departLane="best" departSpeed="max" from="42836317" to="-23623485"/>
    <trip id="veh191" type="veh_passenger" depart="36.92" departLane="best" departSpeed="max" from="-96107124#4" to="29994275"/>
    <trip id="veh192" type="veh_passenger" depart="37.12" departLane="best" departSpeed="max" from="23623484" to="-42836311"/>
    <trip id="veh193" type="veh_passenger" depart="37.31" departLane="best" departSpeed="max" from="30016382#0" to="-222114282"/>
    <trip id="veh197" type="veh_passenger" depart="38.08" departLane="best" departSpeed="max" from="23637475#0" to="-23623484"/>
    <trip id="veh198" type="veh_passenger" depart="38.28" departLane="best" departSpeed="max" from="-30603313" to="42836320"/>
    <trip id="veh199" type="veh_passenger" depart="38.47" departLane="best" departSpeed="max" from="22994936#0" to="42763010#1"/>
    <trip id="veh200" type="veh_passenger" depart="38.66" departLane="best" departSpeed="max" from="30016382#0" to="96107124#4"/>
    <trip id="veh201" type="veh_passenger" depart="38.86" departLane="best" departSpeed="max" from="47638902" to="29994275"/>
    <trip id="veh202" type="veh_passenger" depart="39.05" departLane="best" departSpeed="max" from="30267533" to="23623513"/>
    <trip id="veh203" type="veh_passenger" depart="39.24" departLane="best" departSpeed="max" from="42836311" to="23637543"/>
    <trip id="veh205" type="veh_passenger" depart="39.63" departLane="best" departSpeed="max" from="23543754" to="-42836311"/>
    <trip id="veh206" type="veh_passenger" depart="39.82" departLane="best" departSpeed="max" from="-30603313" to="29994751"/>
    <trip id="veh208" type="veh_passenger" depart="40.21" departLane="best" departSpeed="max" from="-23637543" to="-48119686"/>
    <trip id="veh209" type="veh_passenger" depart="40.40" departLane="best" departSpeed="max" from="-382403297" to="-48119686"/>
    <trip id="veh210" type="veh_passenger" depart="40.60" departLane="best" departSpeed="max" from="23637550" to="-27122144#0"/>
    <trip id="veh211" type="veh_passenger" depart="40.79" departLane="best" departSpeed="max" from="30134200#0" to="-23623485"/>
    <trip id="veh212" type="veh_passenger" depart="40.98" departLane="best" departSpeed="max" from="-96107124#4" to="23637543"/>
    <trip id="veh213" type="veh_passenger" depart="41.18" departLane="best" departSpeed="max" from="-96107124#4" to="-31331144"/>
    <trip id="veh214" type="veh_passenger" depart="41.37" departLane="best" departSpeed="max" from="222114282" to="704158515#2"/>
    <trip id="veh215" type="veh_passenger" depart="41.56" departLane="best" departSpeed="max" from="29495319#0" to="30137832#1"/>
    <trip id="veh219" type="veh_passenger" depart="42.34" departLane="best" departSpeed="max" from="42836317" to="712333488#1"/>
    <trip id="veh221" type="veh_passenger" depart="42.72" departLane="best" departSpeed="max" from="23637550" to="29986379#3"/>
    <trip id="veh223" type="veh_passenger" depart="43.11" departLane="best" departSpeed="max" from="222114282" to="-23543754"/>
    <trip id="veh226" type="veh_passenger" depart="43.69" departLane="best" departSpeed="max" from="23543754" to="-27122144#0"/>
    <trip id="veh229" type="veh_passenger" depart="44.27" departLane="best" departSpeed="max" from="-159540550#8" to="29994751"/>
    <trip id="veh230" type="veh_passenger" depart="44.46" departLane="best" departSpeed="max" from="-29994751" to="188236642"/>
    <trip id="veh232" type="veh_passenger" depart="44.85" departLane="best" departSpeed="max" from="31331144" to="-79191774#0"/>
    <trip id="veh233" type="veh_passenger" depart="45.04" departLane="best" departSpeed="max" from="31331144" to="42836316"/>
    <trip id="veh234" type="veh_passenger" depart="45.23" departLane="best" departSpeed="max" from="-30603313" to="-23637475#0"/>
    <trip id="veh235" type="veh_passenger" depart="45.43" departLane="best" departSpeed="max" from="-159540550#8" to="23637543"/>
    <trip id="veh236" type="veh_passenger" depart="45.62" departLane="best" from="96107124#0" to="-79191774#0"/>
    <trip id="veh238" type="veh_passenger" depart="46.01" departLane="best" departSpeed="max" from="511316582#0" to="-31331144"/>
    <trip id="veh239" type="veh_passenger" depart="46.20" departLane="best" departSpeed="max" from="-159540550#8" to="-29495319#0"/>
    <trip id="veh240" type="veh_passenger" depart="46.39" departLane="best" departSpeed="max" from="-29994275" to="29994853#1"/>
    <trip id="veh241" type="veh_passenger" depart="46.59" departLane="best" departSpeed="max" from="27122144#0" to="-31331144"/>
    <trip id="veh243" type="veh_passenger" depart="46.97" departLane="best" departSpeed="max" from="-29994853#1" to="29986379#3"/>
    <trip id="veh244" type="veh_passenger" depart="47.17" departLane="best" departSpeed="max" from="30601439" to="-23637550"/>
    <trip id="veh245" type="veh_passenger" depart="47.36" departLane="best" departSpeed="max" from="42836295" to="95891471#1"/>
    <trip id="veh246" type="veh_passenger" depart="47.55" departLane="best" departSpeed="max" from="-27198559#1" to="-23543754"/>
    <trip id="veh248" type="veh_passenger" depart="47.94" departLane="best" departSpeed="max" from="511316582#0" to="159540550#6"/>
    <trip id="veh249" type="veh_passenger" depart="48.13" departLane="best" departSpeed="max" from="30267533" to="-23623485"/>
    <trip id="veh250" type="veh_passenger" depart="48.33" departLane="best" from="30016979#0" to="29994275"/>
    <trip id="veh252" type="veh_passenger" depart="48.71" departLane="best" departSpeed="max" from="42836317" to="29986379#3"/>
    <trip id="veh253" type="veh_passenger" depart="48.91" departLane="best" departSpeed="max" from="-29994275" to="96107124#4"/>
    <trip id="veh254" type="veh_passenger" depart="49.10" departLane="best" departSpeed="max" from="31331144" to="-79191774#0"/>
    <trip id="veh255" type="veh_passenger" depart="49.29" departLane="best" departSpeed="max" from="222114282" to="-79191774#0"/>
    <trip id="veh256" type="veh_passenger" depart="49.49" departLane="best" departSpeed="max" from="23623485" to="-511316582#0"/>
    <trip id="veh257" type="veh_passenger" depart="49.68" departLane="best" departSpeed="max" from="-27198559#1" to="95891471#1"/>
    <trip id="veh258" type="veh_passenger" depart="49.87" departLane="best" departSpeed="max" from="30015999" to="42836316"/>
    <trip id="veh260" type="veh_passenger" depart="50.26" departLane="best" departSpeed="max" from="30601439" to="95891471#1"/>
    <trip id="veh261" type="veh_passenger" depart="50.45" departLane="best" departSpeed="max" from="-382403297" to="42763010#1"/>
    <trip id="veh262" type="veh_passenger" depart="50.65" departLane="best" departSpeed="max" from="23637550" to="22885812#1"/>
    <trip id="veh263" type="veh_passenger" depart="50.84" departLane="best" departSpeed="max" from="222114282" to="30137885"/>
    <trip id="veh264" type="veh_passenger" depart="51.03" departLane="best" departSpeed="max" from="-382403297" to="42836320"/>
    <trip id="veh265" type="veh_passenger" depart="51.23" departLane="best" departSpeed="max" from="42836311" to="-23637475#0"/>
    <trip id="veh266" type="veh_passenger" depart="51.42" departLane="best" departSpeed="max" from="42956750" to="-42836311"/>
    <trip id="veh267" type="veh_passenger" depart="51.61" departLane="best" departSpeed="max" from="23543754" to="29994223#9"/>
    <trip id="veh268" type="veh_passenger" depart="51.81" departLane="best" departSpeed="max" from="-712274899" to="-23543754"/>
    <trip id="veh269" type="veh_passenger" depart="52.00" departLane="best" departSpeed="max" from="42836317" to="-31331144"/>
    <trip id="veh271" type="veh_passenger" depart="52.39" departLane="best" departSpeed="max" from="-42836320" to="47638901"/>