<?xml version="1.0" encoding="UTF-8"?>

<!-- generated on Tue Sep 17 10:19:11 2019 by Eclipse SUMO netconvert Version 1.2.0
<configuration xmlns:xsi="http://www.w3.org/2001/XMLSchema-instance" xsi:noNamespaceSchemaLocation="http://sumo.dlr.de/xsd/netconvertConfiguration.xsd">

    <input>
        <type-files value="/usr/share/sumo/data/typemap/osmNetconvert.typ.xml"/>
        <osm-files value="osm_bbox.osm.xml"/>
    </input>

    <output>
        <output-file value="osm.net.xml"/>
        <output.street-names value="true"/>
        <output.original-names value="true"/>
    </output>

    <projection>
        <proj.utm value="true"/>
    </projection>

    <processing>
        <geometry.remove value="true"/>
        <roundabouts.guess value="true"/>
    </processing>

    <tls_building>
        <tls.discard-simple value="true"/>
        <tls.join value="true"/>
        <tls.guess-signals value="true"/>
        <tls.default-type value="actuated"/>
    </tls_building>

    <ramp_guessing>
        <ramps.guess value="true"/>
    </ramp_guessing>

    <junctions>
        <junctions.join value="true"/>
        <junctions.corner-detail value="5"/>
    </junctions>

    <report>
        <verbose value="true"/>
    </report>

</configuration>
-->

<net version="1.1" junctionCornerDetail="5" limitTurnSpeed="5.50" xmlns:xsi="http://www.w3.org/2001/XMLSchema-instance" xsi:noNamespaceSchemaLocation="http://sumo.dlr.de/xsd/net_file.xsd">

    <location netOffset="-723581.25,-5031307.89" convBoundary="0.00,0.00,1483.97,1997.86" origBoundary="11.856779,45.399349,11.878563,45.417313" projParameter="+proj=utm +zone=32 +ellps=WGS84 +datum=WGS84 +units=m +no_defs"/>

    <type id="highway.bridleway" priority="1" numLanes="1" speed="2.78" allow="pedestrian" oneway="1" width="2.00"/>
    <type id="highway.bus_guideway" priority="1" numLanes="1" speed="27.78" allow="bus" oneway="1"/>
    <type id="highway.cycleway" priority="1" numLanes="1" speed="8.33" allow="bicycle" oneway="0" width="1.00"/>
    <type id="highway.footway" priority="1" numLanes="1" speed="2.78" allow="pedestrian" oneway="1" width="2.00"/>
    <type id="highway.ford" priority="1" numLanes="1" speed="2.78" allow="army" oneway="0"/>
    <type id="highway.living_street" priority="2" numLanes="1" speed="2.78" disallow="tram rail_urban rail rail_electric ship" oneway="0"/>
    <type id="highway.motorway" priority="14" numLanes="2" speed="39.44" allow="private emergency authority army vip passenger hov taxi bus coach delivery truck trailer motorcycle evehicle custom1 custom2" oneway="1"/>
    <type id="highway.motorway_link" priority="9" numLanes="1" speed="22.22" allow="private emergency authority army vip passenger hov taxi bus coach delivery truck trailer motorcycle evehicle custom1 custom2" oneway="1"/>
    <type id="highway.path" priority="1" numLanes="1" speed="2.78" allow="bicycle pedestrian" oneway="1" width="2.00"/>
    <type id="highway.pedestrian" priority="1" numLanes="1" speed="2.78" allow="pedestrian" oneway="1" width="2.00"/>
    <type id="highway.primary" priority="12" numLanes="2" speed="27.78" disallow="tram rail_urban rail rail_electric ship" oneway="0"/>
    <type id="highway.primary_link" priority="7" numLanes="1" speed="22.22" disallow="tram rail_urban rail rail_electric ship" oneway="0"/>
    <type id="highway.raceway" priority="15" numLanes="2" speed="83.33" allow="vip" oneway="0"/>
    <type id="highway.residential" priority="3" numLanes="1" speed="13.89" disallow="tram rail_urban rail rail_electric ship" oneway="0"/>
    <type id="highway.secondary" priority="11" numLanes="2" speed="27.78" disallow="tram rail_urban rail rail_electric ship" oneway="0"/>
    <type id="highway.secondary_link" priority="6" numLanes="1" speed="22.22" disallow="tram rail_urban rail rail_electric ship" oneway="0"/>
    <type id="highway.service" priority="1" numLanes="1" speed="5.56" allow="delivery bicycle pedestrian" oneway="0"/>
    <type id="highway.stairs" priority="1" numLanes="1" speed="1.39" allow="pedestrian" oneway="1" width="2.00"/>
    <type id="highway.step" priority="1" numLanes="1" speed="1.39" allow="pedestrian" oneway="1" width="2.00"/>
    <type id="highway.steps" priority="1" numLanes="1" speed="1.39" allow="pedestrian" oneway="1" width="2.00"/>
    <type id="highway.tertiary" priority="10" numLanes="1" speed="22.22" disallow="tram rail_urban rail rail_electric ship" oneway="0"/>
    <type id="highway.tertiary_link" priority="5" numLanes="1" speed="22.22" disallow="tram rail_urban rail rail_electric ship" oneway="0"/>
    <type id="highway.track" priority="1" numLanes="1" speed="5.56" disallow="tram rail_urban rail rail_electric ship" oneway="0"/>
    <type id="highway.trunk" priority="13" numLanes="2" speed="27.78" disallow="tram rail_urban rail rail_electric bicycle pedestrian ship" oneway="0"/>
    <type id="highway.trunk_link" priority="8" numLanes="1" speed="22.22" disallow="tram rail_urban rail rail_electric bicycle pedestrian ship" oneway="0"/>
    <type id="highway.unclassified" priority="4" numLanes="1" speed="13.89" disallow="tram rail_urban rail rail_electric ship" oneway="0"/>
    <type id="highway.unsurfaced" priority="1" numLanes="1" speed="8.33" disallow="tram rail_urban rail rail_electric ship" oneway="0"/>
    <type id="railway.light_rail" priority="19" numLanes="1" speed="27.78" allow="rail_urban" oneway="1"/>
    <type id="railway.preserved" priority="16" numLanes="1" speed="27.78" allow="rail" oneway="1"/>
    <type id="railway.rail" priority="20" numLanes="1" speed="83.33" allow="rail rail_electric" oneway="1"/>
    <type id="railway.subway" priority="18" numLanes="1" speed="27.78" allow="rail_urban" oneway="1"/>
    <type id="railway.tram" priority="17" numLanes="1" speed="13.89" allow="tram" oneway="1"/>

    <edge id=":1102179647_0" function="internal">
        <lane id=":1102179647_0_0" index="0" allow="bicycle" speed="6.38" length="5.33" width="1.00" shape="509.81,846.18 507.85,846.48 506.37,846.85 505.37,847.29 504.86,847.82"/>
    </edge>
    <edge id=":1102179647_1" function="internal">
        <lane id=":1102179647_1_0" index="0" allow="bicycle" speed="2.04" length="1.46" width="1.00" shape="509.81,846.18 509.41,845.98 509.25,845.74 509.35,845.48 509.69,845.19"/>
    </edge>
    <edge id=":1102179647_2" function="internal">
        <lane id=":1102179647_2_0" index="0" allow="bicycle" speed="3.65" length="3.21" width="1.00" shape="507.72,843.34 507.81,844.24 508.16,844.85 508.79,845.16 509.69,845.19"/>
    </edge>
    <edge id=":1102179647_3" function="internal">
        <lane id=":1102179647_3_0" index="0" allow="bicycle" speed="8.33" length="5.46" width="1.00" shape="507.72,843.34 507.38,844.82 506.67,845.68 505.77,846.48 504.86,847.82"/>
    </edge>
    <edge id=":1102179648_0" function="internal">
        <lane id=":1102179648_0_0" index="0" disallow="tram rail_urban rail rail_electric ship" speed="13.89" length="5.01" shape="479.13,844.03 474.12,844.11"/>
    </edge>
    <edge id=":1102179648_1" function="internal">
        <lane id=":1102179648_1_0" index="0" allow="bicycle" speed="5.45" length="1.30" width="1.00" shape="479.11,842.93 478.07,842.62 477.94,842.45"/>
    </edge>
    <edge id=":1102179648_2" function="internal">
        <lane id=":1102179648_2_0" index="0" disallow="tram rail_urban rail rail_electric ship" speed="3.65" length="2.34" shape="479.13,844.03 477.91,843.25 477.50,842.46"/>
    </edge>
    <edge id=":1102179648_6" function="internal">
        <lane id=":1102179648_6_0" index="0" allow="bicycle" speed="5.45" length="4.95" width="1.00" shape="477.94,842.45 477.35,841.65 476.96,840.03 476.89,837.74"/>
    </edge>
    <edge id=":1102179648_7" function="internal">
        <lane id=":1102179648_7_0" index="0" disallow="tram rail_urban rail rail_electric ship" speed="3.65" length="2.34" shape="477.50,842.46 477.89,841.65 479.08,840.83"/>
    </edge>
    <edge id=":1102179648_3" function="internal">
        <lane id=":1102179648_3_0" index="0" allow="bicycle" speed="4.65" length="3.93" width="1.00" shape="474.05,839.81 475.27,839.66 476.14,839.27 476.68,838.63 476.89,837.74"/>
    </edge>
    <edge id=":1102179648_4" function="internal">
        <lane id=":1102179648_4_0" index="0" disallow="tram rail_urban rail rail_electric ship" speed="13.89" length="5.01" shape="474.07,840.91 479.08,840.83"/>
    </edge>
    <edge id=":1102179648_5" function="internal">
        <lane id=":1102179648_5_0" index="0" disallow="tram rail_urban rail rail_electric ship" speed="3.65" length="2.34" shape="474.07,840.91 475.28,841.69 475.69,842.48"/>
    </edge>
    <edge id=":1102179648_8" function="internal">
        <lane id=":1102179648_8_0" index="0" disallow="tram rail_urban rail rail_electric ship" speed="3.65" length="2.34" shape="475.69,842.48 475.31,843.29 474.12,844.11"/>
    </edge>
    <edge id=":1102179669_0" function="internal">
        <lane id=":1102179669_0_0" index="0" allow="bicycle" speed="4.30" length="3.78" width="1.00" shape="503.70,862.57 503.49,863.43 502.97,864.06 502.14,864.46 501.00,864.62"/>
    </edge>
    <edge id=":1102179694_0" function="internal">
        <lane id=":1102179694_0_0" index="0" allow="bicycle" speed="10.97" length="5.93" width="1.00" shape="505.50,824.64 505.27,826.37 505.26,827.59 505.55,828.77 506.19,830.40"/>
    </edge>
    <edge id=":1102179694_1" function="internal">
        <lane id=":1102179694_1_0" index="0" disallow="tram rail_urban rail rail_electric ship" speed="27.78" length="6.20" shape="504.41,824.47 503.55,830.60"/>
        <lane id=":1102179694_1_1" index="1" disallow="tram rail_urban rail rail_electric ship" speed="27.78" length="6.20" shape="501.25,824.00 500.38,830.16"/>
    </edge>
    <edge id=":1102179694_3" function="internal">
        <lane id=":1102179694_3_0" index="0" allow="bicycle" speed="7.15" length="7.83" width="1.00" shape="500.41,825.79 502.25,826.15 503.83,827.04 505.14,828.46 506.19,830.40"/>
    </edge>
    <edge id=":1102179694_4" function="internal">
        <lane id=":1102179694_4_0" index="0" disallow="tram rail_urban rail rail_electric ship" speed="4.62" length="5.07" shape="500.41,825.79 501.10,826.11 501.51,826.96 501.63,828.37 501.47,830.31"/>
    </edge>
    <edge id=":1102179702_0" function="internal">
        <lane id=":1102179702_0_0" index="0" disallow="tram rail_urban rail rail_electric ship" speed="10.55" length="3.86" shape="493.41,826.25 494.16,825.37 494.84,824.85 495.38,824.29 495.67,823.26"/>
    </edge>
    <edge id=":1102179702_1" function="internal">
        <lane id=":1102179702_1_0" index="0" allow="bicycle" speed="6.96" length="6.88" width="1.00" shape="493.41,826.25 494.56,825.81 496.63,825.68 498.80,825.71 500.21,825.78"/>
    </edge>
    <edge id=":1102179702_2" function="internal">
        <lane id=":1102179702_2_0" index="0" disallow="tram rail_urban rail rail_electric ship" speed="18.83" length="5.49" shape="495.26,828.04 495.90,826.71 496.31,825.78 496.57,824.81 496.77,823.37"/>
        <lane id=":1102179702_2_1" index="1" disallow="tram rail_urban rail rail_electric ship" speed="20.77" length="5.49" shape="498.16,829.40 498.93,827.78 499.42,826.64 499.72,825.46 499.95,823.69"/>
    </edge>
    <edge id=":1102179702_4" function="internal">
        <lane id=":1102179702_4_0" index="0" allow="bicycle" speed="5.44" length="4.22" width="1.00" shape="499.15,829.87 500.21,825.78"/>
    </edge>
    <edge id=":1102179732_0" function="internal">
        <lane id=":1102179732_0_0" index="0" disallow="tram rail_urban rail rail_electric ship" speed="8.33" length="5.20" shape="491.20,867.36 490.57,862.19"/>
        <lane id=":1102179732_0_1" index="1" disallow="tram rail_urban rail rail_electric ship" speed="8.33" length="5.20" shape="494.37,866.97 493.75,861.81"/>
    </edge>
    <edge id=":1102179732_2" function="internal">
        <lane id=":1102179732_2_0" index="0" disallow="tram rail_urban rail rail_electric ship" speed="4.74" length="4.64" shape="495.69,864.78 494.49,864.63 493.59,864.10 492.97,863.21 492.65,861.94"/>
    </edge>
    <edge id=":1102179774_0" function="internal">
        <lane id=":1102179774_0_0" index="0" allow="bicycle" speed="4.52" length="3.62" width="1.00" shape="509.89,840.59 508.99,840.75 508.34,841.20 507.92,841.95 507.74,843.00"/>
    </edge>
    <edge id=":1102179774_1" function="internal">
        <lane id=":1102179774_1_0" index="0" disallow="tram rail_urban rail rail_electric ship" speed="13.72" length="3.22" shape="509.87,839.49 508.92,839.49 508.26,839.53 507.62,839.67 506.72,839.99"/>
    </edge>
    <edge id=":1102179774_2" function="internal">
        <lane id=":1102179774_2_0" index="0" allow="bicycle" speed="8.33" length="6.56" width="1.00" shape="507.78,836.44 507.86,838.38 507.88,839.72 507.84,841.05 507.74,843.00"/>
    </edge>
    <edge id=":1102179774_3" function="internal">
        <lane id=":1102179774_3_0" index="0" disallow="tram rail_urban rail rail_electric ship" speed="5.29" length="4.75" shape="507.78,836.44 507.83,837.52 507.82,838.96 507.63,840.28 507.12,841.01"/>
    </edge>
    <edge id=":1111084708_0" function="internal">
        <lane id=":1111084708_0_0" index="0" disallow="tram rail_urban rail rail_electric ship" speed="12.50" length="9.41" shape="1347.02,1511.37 1349.05,1513.20 1350.73,1514.08 1352.66,1514.52 1355.42,1515.01"/>
    </edge>
    <edge id=":1222827131_0" function="internal">
        <lane id=":1222827131_0_0" index="0" disallow="tram rail_urban rail rail_electric ship" speed="22.22" length="12.46" shape="1267.45,1515.15 1269.85,1512.80 1271.76,1510.65 1273.43,1508.31 1275.11,1505.41"/>
    </edge>
    <edge id=":1222827131_1" function="internal">
        <lane id=":1222827131_1_0" index="0" disallow="tram rail_urban rail rail_electric ship" speed="11.56" length="12.40" shape="1267.45,1515.15 1270.46,1512.57 1273.24,1510.75 1275.80,1509.68 1278.12,1509.37"/>
    </edge>
    <edge id=":1222827155_0" function="internal">
        <lane id=":1222827155_0_0" index="0" disallow="tram rail_urban rail rail_electric ship" speed="22.22" length="9.72" shape="1286.36,1517.53 1286.76,1520.32 1287.75,1522.15 1288.66,1523.98 1288.84,1526.75"/>
    </edge>
    <edge id=":1222827155_1" function="internal">
        <lane id=":1222827155_1_0" index="0" disallow="tram rail_urban rail rail_electric ship" speed="18.42" length="10.26" shape="1284.91,1516.30 1285.76,1519.17 1286.09,1521.24 1286.01,1523.36 1285.67,1526.39"/>
    </edge>
    <edge id=":1233582991_0" function="internal">
        <lane id=":1233582991_0_0" index="0" disallow="tram rail_urban rail rail_electric ship" speed="3.65" length="4.67" shape="1323.84,1033.65 1323.94,1035.09 1323.55,1035.89 1322.68,1036.07 1321.31,1035.61"/>
    </edge>
    <edge id=":1365188964_0" function="internal">
        <lane id=":1365188964_0_0" index="0" disallow="tram rail_urban rail rail_electric ship" speed="8.33" length="1.57" shape="1166.20,861.21 1164.66,861.48"/>
    </edge>
    <edge id=":1451953235_0" function="internal">
        <lane id=":1451953235_0_0" index="0" disallow="tram rail_urban rail rail_electric ship" speed="8.33" length="6.02" shape="878.52,1201.29 880.74,1206.89"/>
    </edge>
    <edge id=":1451959571_0" function="internal">
        <lane id=":1451959571_0_0" index="0" disallow="tram rail_urban rail rail_electric ship" speed="3.65" length="4.67" shape="570.16,1436.28 571.35,1437.10 571.75,1437.90 571.34,1438.70 570.13,1439.48"/>
    </edge>
    <edge id=":1459165176_0" function="internal">
        <lane id=":1459165176_0_0" index="0" disallow="tram rail_urban rail rail_electric ship" speed="8.33" length="5.13" shape="1195.16,424.82 1195.08,419.69"/>
    </edge>
    <edge id=":1459270005_0" function="internal">
        <lane id=":1459270005_0_0" index="0" disallow="tram rail_urban rail rail_electric ship" speed="22.22" length="5.21" shape="1056.05,1139.74 1050.84,1139.83"/>
    </edge>
    <edge id=":1459270005_1" function="internal">
        <lane id=":1459270005_1_0" index="0" disallow="tram rail_urban rail rail_electric ship" speed="3.65" length="2.34" shape="1056.05,1139.74 1054.83,1138.97 1054.41,1138.18"/>
    </edge>
    <edge id=":1459270005_4" function="internal">
        <lane id=":1459270005_4_0" index="0" disallow="tram rail_urban rail rail_electric ship" speed="3.65" length="2.34" shape="1054.41,1138.18 1054.79,1137.37 1055.97,1136.54"/>
    </edge>
    <edge id=":1459270005_2" function="internal">
        <lane id=":1459270005_2_0" index="0" disallow="tram rail_urban rail rail_electric ship" speed="22.22" length="5.15" shape="1050.82,1136.63 1055.97,1136.54"/>
    </edge>
    <edge id=":1459270005_3" function="internal">
        <lane id=":1459270005_3_0" index="0" disallow="tram rail_urban rail rail_electric ship" speed="3.65" length="2.34" shape="1050.82,1136.63 1052.03,1137.42 1052.43,1138.22"/>
    </edge>
    <edge id=":1459270005_5" function="internal">
        <lane id=":1459270005_5_0" index="0" disallow="tram rail_urban rail rail_electric ship" speed="3.65" length="2.34" shape="1052.43,1138.22 1052.04,1139.02 1050.84,1139.83"/>
    </edge>
    <edge id=":1460555322_0" function="internal">
        <lane id=":1460555322_0_0" index="0" allow="bus bicycle" speed="15.28" length="0.16" shape="1282.04,1356.55 1282.04,1356.39"/>
    </edge>
    <edge id=":1460555322_1" function="internal">
        <lane id=":1460555322_1_0" index="0" disallow="tram rail_urban rail rail_electric ship" speed="15.28" length="0.14" shape="1285.24,1356.35 1285.24,1356.49"/>
    </edge>
    <edge id=":1503077935_0" function="internal">
        <lane id=":1503077935_0_0" index="0" disallow="tram rail_urban rail rail_electric ship" speed="8.33" length="4.83" shape="1228.60,873.66 1228.57,872.23 1228.52,871.24 1228.43,870.27 1228.26,868.84"/>
    </edge>
    <edge id=":1576559653_0" function="internal">
        <lane id=":1576559653_0_0" index="0" disallow="tram rail_urban rail rail_electric ship" speed="3.65" length="4.67" shape="230.07,546.97 229.31,548.19 228.53,548.62 227.71,548.24 226.88,547.07"/>
    </edge>
    <edge id=":1645027120_0" function="internal">
        <lane id=":1645027120_0_0" index="0" disallow="tram rail_urban rail rail_electric ship" speed="8.33" length="4.97" shape="1229.88,959.41 1229.25,954.48"/>
    </edge>
    <edge id=":1645027120_1" function="internal">
        <lane id=":1645027120_1_0" index="0" disallow="tram rail_urban rail rail_electric ship" speed="3.65" length="2.34" shape="1229.88,959.41 1230.51,958.11 1231.25,957.60"/>
    </edge>
    <edge id=":1645027120_4" function="internal">
        <lane id=":1645027120_4_0" index="0" disallow="tram rail_urban rail rail_electric ship" speed="3.65" length="2.34" shape="1231.25,957.60 1232.10,957.89 1233.05,958.97"/>
    </edge>
    <edge id=":1645027120_2" function="internal">
        <lane id=":1645027120_2_0" index="0" disallow="tram rail_urban rail rail_electric ship" speed="8.33" length="4.90" shape="1232.43,954.11 1233.05,958.97"/>
    </edge>
    <edge id=":1645027120_3" function="internal">
        <lane id=":1645027120_3_0" index="0" disallow="tram rail_urban rail rail_electric ship" speed="3.65" length="2.34" shape="1232.43,954.11 1231.78,955.40 1231.03,955.89"/>
    </edge>
    <edge id=":1645027120_5" function="internal">
        <lane id=":1645027120_5_0" index="0" disallow="tram rail_urban rail rail_electric ship" speed="3.65" length="2.34" shape="1231.03,955.89 1230.19,955.58 1229.25,954.48"/>
    </edge>
    <edge id=":1650283375_0" function="internal">
        <lane id=":1650283375_0_0" index="0" disallow="tram rail_urban rail rail_electric ship" speed="13.89" length="4.92" shape="846.51,731.73 846.54,726.81"/>
    </edge>
    <edge id=":1650283385_0" function="internal">
        <lane id=":1650283385_0_0" index="0" disallow="tram rail_urban rail rail_electric ship" speed="8.33" length="5.92" shape="1193.71,759.04 1195.54,764.67"/>
    </edge>
    <edge id=":1650283399_0" function="internal">
        <lane id=":1650283399_0_0" index="0" disallow="tram rail_urban rail rail_electric ship" speed="13.89" length="5.02" shape="838.71,788.52 839.70,783.60"/>
    </edge>
    <edge id=":1650283412_0" function="internal">
        <lane id=":1650283412_0_0" index="0" disallow="tram rail_urban rail rail_electric ship" speed="8.33" length="6.77" shape="1209.73,814.08 1209.61,816.09 1209.49,817.46 1209.27,818.82 1208.89,820.79"/>
    </edge>
    <edge id=":1650283430_0" function="internal">
        <lane id=":1650283430_0_0" index="0" disallow="tram rail_urban rail rail_electric ship" speed="8.33" length="5.08" shape="1204.98,840.62 1203.97,845.60"/>
    </edge>
    <edge id=":1655268868_0" function="internal">
        <lane id=":1655268868_0_0" index="0" allow="bus bicycle" speed="8.33" length="0.26" shape="496.16,878.18 496.16,878.44"/>
    </edge>
    <edge id=":1655268868_1" function="internal">
        <lane id=":1655268868_1_0" index="0" disallow="tram rail_urban rail rail_electric ship" speed="8.33" length="1.21" shape="489.76,878.28 489.87,877.90 490.10,877.68 490.35,877.47 490.52,877.10"/>
        <lane id=":1655268868_1_1" index="1" disallow="tram rail_urban rail rail_electric ship" speed="8.33" length="1.21" shape="492.96,878.36 493.66,877.70"/>
    </edge>
    <edge id=":1655268930_0" function="internal">
        <lane id=":1655268930_0_0" index="0" allow="bicycle pedestrian" speed="2.78" length="1.77" width="2.00" shape="515.60,1424.39 513.96,1425.08"/>
    </edge>
    <edge id=":1655268930_1" function="internal">
        <lane id=":1655268930_1_0" index="0" allow="bicycle" speed="4.88" length="4.41" width="1.00" shape="515.41,1423.93 514.67,1423.70 513.89,1422.76 513.19,1421.60 512.68,1420.68"/>
    </edge>
    <edge id=":1655268930_2" function="internal">
        <lane id=":1655268930_2_0" index="0" allow="bicycle pedestrian" speed="2.78" length="2.92" width="2.00" shape="515.60,1424.39 514.71,1424.23 514.29,1423.86 514.32,1423.30 514.82,1422.55"/>
    </edge>
    <edge id=":1655268930_3" function="internal">
        <lane id=":1655268930_3_0" index="0" allow="bicycle" speed="3.51" length="2.49" width="1.00" shape="512.91,1422.82 513.33,1422.43 513.33,1421.92 513.06,1421.32 512.68,1420.68"/>
    </edge>
    <edge id=":1655268930_4" function="internal">
        <lane id=":1655268930_4_0" index="0" allow="bicycle pedestrian" speed="2.78" length="1.85" width="2.00" shape="513.11,1423.27 514.82,1422.55"/>
    </edge>
    <edge id=":1655268930_5" function="internal">
        <lane id=":1655268930_5_0" index="0" allow="bicycle pedestrian" speed="2.78" length="2.92" width="2.00" shape="513.11,1423.27 514.00,1423.40 514.44,1423.75 514.43,1424.31 513.96,1425.08"/>
    </edge>
    <edge id=":1697980094_0" function="internal">
        <lane id=":1697980094_0_0" index="0" allow="bicycle pedestrian" speed="2.78" length="4.40" width="2.00" shape="469.85,484.92 468.68,485.44 467.80,485.64 466.88,485.57 465.60,485.33"/>
    </edge>
    <edge id=":1716498106_0" function="internal">
        <lane id=":1716498106_0_0" index="0" disallow="tram rail_urban rail rail_electric ship" speed="9.64" length="7.48" shape="475.85,486.81 477.60,485.62 478.46,484.39 478.95,482.84 479.63,480.71"/>
    </edge>
    <edge id=":1716498106_1" function="internal">
        <lane id=":1716498106_1_0" index="0" disallow="tram rail_urban rail rail_electric ship" speed="10.42" length="8.79" shape="475.85,486.81 478.27,485.76 480.08,485.06 481.47,483.99 482.63,481.83"/>
    </edge>
    <edge id=":1716498106_2" function="internal">
        <lane id=":1716498106_2_0" index="0" disallow="tram rail_urban rail rail_electric ship" speed="9.10" length="5.64" shape="475.85,486.81 477.65,485.76 478.99,485.05 480.37,484.80 482.33,485.12"/>
        <lane id=":1716498106_2_1" index="1" disallow="tram rail_urban rail rail_electric ship" speed="7.24" length="5.64" shape="478.02,489.28 479.13,488.66 479.96,488.26 480.81,488.14 482.02,488.36"/>
    </edge>
    <edge id=":1716498118_0" function="internal">
        <lane id=":1716498118_0_0" index="0" disallow="tram rail_urban rail rail_electric ship" speed="14.01" length="9.59" shape="479.90,512.96 478.78,510.59 478.04,508.88 477.01,507.45 475.00,505.93"/>
        <lane id=":1716498118_0_1" index="1" disallow="tram rail_urban rail rail_electric ship" speed="15.23" length="9.59" shape="482.71,511.43 481.35,508.64 480.41,506.66 479.11,505.01 476.70,503.21"/>
    </edge>
    <edge id=":1716498118_2" function="internal">
        <lane id=":1716498118_2_0" index="0" disallow="tram rail_urban rail rail_electric ship" speed="9.97" length="9.33" shape="484.96,507.18 482.35,507.72 479.82,507.70 477.37,507.10 475.00,505.93"/>
        <lane id=":1716498118_2_1" index="1" disallow="tram rail_urban rail rail_electric ship" speed="8.97" length="9.33" shape="484.71,503.91 482.48,504.40 480.40,504.45 478.47,504.06 476.70,503.21"/>
    </edge>
    <edge id=":1716545636_0" function="internal">
        <lane id=":1716545636_0_0" index="0" disallow="tram rail_urban rail rail_electric ship" speed="3.65" length="4.67" shape="532.50,1671.85 531.74,1673.07 530.96,1673.50 530.14,1673.13 529.30,1671.96"/>
    </edge>
    <edge id=":1716545754_0" function="internal">
        <lane id=":1716545754_0_0" index="0" allow="bus bicycle" speed="3.65" length="4.67" shape="637.99,1998.78 636.64,1999.31 635.76,1999.18 635.33,1998.39 635.36,1996.95"/>
    </edge>
    <edge id=":1829721269_0" function="internal">
        <lane id=":1829721269_0_0" index="0" allow="bicycle pedestrian" speed="8.52" length="5.13" width="2.00" shape="542.79,1401.32 541.48,1401.41 540.74,1402.15 540.06,1403.18 538.88,1404.17"/>
    </edge>
    <edge id=":1829721269_1" function="internal">
        <lane id=":1829721269_1_0" index="0" disallow="tram rail_urban rail rail_electric ship" speed="27.78" length="8.13" shape="542.79,1401.32 540.52,1400.90 538.95,1400.68 537.37,1400.64 535.07,1400.74"/>
        <lane id=":1829721269_1_1" index="1" disallow="tram rail_urban rail rail_electric ship" speed="27.78" length="8.13" shape="543.38,1398.17 540.90,1397.71 539.19,1397.48 537.47,1397.44 534.96,1397.55"/>
    </edge>
    <edge id=":1829721269_3" function="internal">
        <lane id=":1829721269_3_0" index="0" allow="bicycle pedestrian" speed="5.93" length="6.59" width="2.00" shape="543.38,1398.17 541.25,1397.60 539.75,1396.78 538.88,1395.73 538.64,1394.44"/>
    </edge>
    <edge id=":1829721269_4" function="internal">
        <lane id=":1829721269_4_0" index="0" allow="bicycle pedestrian" speed="2.78" length="9.92" width="2.00" shape="540.64,1394.54 540.36,1398.49 539.97,1401.42 539.48,1403.31 538.88,1404.17"/>
    </edge>
    <edge id=":1829721269_5" function="internal">
        <lane id=":1829721269_5_0" index="0" disallow="tram rail_urban rail rail_electric ship" speed="5.89" length="6.98" shape="540.64,1394.54 540.23,1395.74 539.15,1396.64 537.39,1397.24 534.96,1397.55"/>
    </edge>
    <edge id=":1829721269_6" function="internal">
        <lane id=":1829721269_6_0" index="0" allow="bicycle pedestrian" speed="2.78" length="2.92" width="2.00" shape="540.64,1394.54 540.10,1395.26 539.59,1395.49 539.10,1395.21 538.64,1394.44"/>
    </edge>
    <edge id=":1829721269_7" function="internal">
        <lane id=":1829721269_7_0" index="0" disallow="tram rail_urban rail rail_electric ship" speed="4.34" length="7.13" shape="536.08,1403.41 538.14,1402.10 538.65,1401.23 537.63,1400.77 535.07,1400.74"/>
    </edge>
    <edge id=":1829721269_8" function="internal">
        <lane id=":1829721269_8_0" index="0" allow="bicycle pedestrian" speed="2.78" length="9.57" width="2.00" shape="536.08,1403.41 537.05,1402.41 537.80,1400.58 538.33,1397.93 538.64,1394.44"/>
    </edge>
    <edge id=":1829721269_9" function="internal">
        <lane id=":1829721269_9_0" index="0" allow="bicycle pedestrian" speed="2.78" length="4.24" width="2.00" shape="536.08,1403.41 537.07,1402.55 537.87,1402.39 538.47,1402.93 538.88,1404.17"/>
    </edge>
    <edge id=":1829721284_0" function="internal">
        <lane id=":1829721284_0_0" index="0" disallow="tram rail_urban rail rail_electric ship" speed="2.68" length="1.86" shape="532.03,1437.50 531.31,1437.49 530.96,1437.61 530.99,1437.85 531.38,1438.21"/>
    </edge>
    <edge id=":1829721284_1" function="internal">
        <lane id=":1829721284_1_0" index="0" disallow="tram rail_urban rail rail_electric ship" speed="5.91" length="4.54" shape="530.72,1433.89 530.58,1435.46 530.64,1436.71 530.91,1437.63 531.38,1438.21"/>
    </edge>
    <edge id=":1829721285_0" function="internal">
        <lane id=":1829721285_0_0" index="0" allow="bicycle pedestrian" speed="4.17" length="5.24" width="2.00" shape="539.94,1439.19 538.44,1438.96 537.48,1438.43 536.51,1437.89 535.01,1437.62"/>
    </edge>
    <edge id=":1829721285_1" function="internal">
        <lane id=":1829721285_1_0" index="0" disallow="tram rail_urban rail rail_electric ship" speed="3.65" length="4.67" shape="539.94,1439.19 538.73,1438.40 538.32,1437.61 538.71,1436.80 539.90,1435.99"/>
    </edge>
    <edge id=":1829721285_2" function="internal">
        <lane id=":1829721285_2_0" index="0" disallow="tram rail_urban rail rail_electric ship" speed="4.17" length="4.70" shape="537.96,1432.63 537.76,1434.11 538.02,1435.17 538.73,1435.79 539.90,1435.99"/>
    </edge>
    <edge id=":1829721285_3" function="internal">
        <lane id=":1829721285_3_0" index="0" allow="bicycle pedestrian" speed="2.78" length="6.08" width="2.00" shape="537.96,1432.63 537.31,1434.82 536.60,1436.39 535.84,1437.32 535.01,1437.62"/>
    </edge>
    <edge id=":1885708904_0" function="internal">
        <lane id=":1885708904_0_0" index="0" allow="delivery bicycle pedestrian" speed="5.56" length="10.14" shape="515.50,1430.76 513.90,1428.24 512.97,1426.38 512.09,1424.49 510.63,1421.88"/>
    </edge>
    <edge id=":1885708904_1" function="internal">