<?xml version="1.0" encoding="UTF-8"?>

<!-- generated on Tue Sep 17 10:19:12 2019 by Eclipse SUMO polyconvert Version 1.2.0
<configuration xmlns:xsi="http://www.w3.org/2001/XMLSchema-instance" xsi:noNamespaceSchemaLocation="http://sumo.dlr.de/xsd/polyconvertConfiguration.xsd">

    <input>
        <net-file value="osm.net.xml"/>
        <osm-files value="osm_bbox.osm.xml"/>
        <osm.keep-full-type value="true"/>
        <type-file value="/usr/share/sumo/data/typemap/osmPolyconvert.typ.xml"/>
    </input>

    <output>
        <output-file value="osm.poly.xml"/>
    </output>

    <processing>
        <poi-layer-offset value="5"/>
    </processing>

    <report>
        <verbose value="true"/>
    </report>

</configuration>
-->

<additional xmlns:xsi="http://www.w3.org/2001/XMLSchema-instance" xsi:noNamespaceSchemaLocation="http://sumo.dlr.de/xsd/additional_file.xsd">
    <location netOffset="-723581.25,-5031307.89" convBoundary="-881.58,-1516.56,2096.12,2351.67" origBoundary="11.845441,45.385279,11.883736,45.420454" projParameter="+proj=utm +zone=32 +ellps=WGS84 +datum=WGS84 +units=m +no_defs"/>

    <poly id="131964282" type="building.yes" color="255,230,230" fill="1" layer="-1.00" shape="622.829736,822.032495 622.805447,824.912604 614.228679,824.829416 614.189678,829.221790 614.131910,835.459988 614.124017,836.560929 662.272009,837.008896 662.297410,834.317924 662.408894,822.397551 650.205377,822.285153 622.829736,822.032495"/>
    <poly id="131964283" type="building.yes" color="255,230,230" fill="1" layer="-1.00" shape="263.543748,647.504067 263.757557,652.506084 270.371167,652.274213 270.257979,650.390330 272.361969,650.276093 272.146742,645.974800 270.153099,646.070716 270.038881,644.876448 263.440915,645.108876 263.436328,645.898475 263.543748,647.504067"/>
    <poly id="131964284" type="building.yes" color="255,230,230" fill="1" layer="-1.00" shape="1051.227607,647.870092 1051.482888,655.643411 1051.555996,658.204427 1061.386323,658.299583 1073.096792,658.406271 1074.108286,658.386773 1084.871960,658.237205 1085.118757,648.034638 1071.581315,647.962803 1064.405065,647.929030 1051.227607,647.870092"/>
    <poly id="131964286" type="building.yes" color="255,230,230" fill="1" layer="-1.00" shape="1157.616078,612.448019 1157.132665,619.839012 1157.936332,619.934461 1157.530890,627.116892 1156.330493,626.940531 1155.511228,636.933553 1157.704517,636.733812 1168.049670,635.579440 1186.285277,633.550127 1186.741601,613.977912 1186.777941,612.522030 1157.616078,612.448019"/>
    <poly id="131964289" type="building.yes" color="255,230,230" fill="1" layer="-1.00" shape="1119.533620,709.664351 1119.496082,713.567364 1103.077562,711.457060 1102.172858,711.558232 1102.009821,717.659217 1101.214266,732.914509 1130.691747,736.859431 1130.226407,711.058504 1130.077258,710.408013 1125.371009,710.106436 1119.533620,709.664351"/>
    <poly id="131964291" type="building.yes" color="255,230,230" fill="1" layer="-1.00" shape="215.291309,1253.425767 223.075018,1252.879572 226.570531,1252.625746 227.999798,1252.531996 227.593814,1246.766745 226.069856,1246.879374 225.618742,1240.400620 219.971296,1240.800351 220.039422,1241.748265 214.502316,1242.129679 215.291309,1253.425767"/>
    <poly id="131964292" type="building.yes" color="255,230,230" fill="1" layer="-1.00" shape="347.403387,492.635929 347.182132,498.412229 350.570320,498.543942 350.344234,504.676019 358.490122,504.988196 358.637051,501.300452 359.576150,501.333878 359.719521,497.746118 358.952985,497.707711 359.132337,493.109002 347.403387,492.635929"/>
    <poly id="131964295" type="building.yes" color="255,230,230" fill="1" layer="-1.00" shape="502.948780,1454.801014 503.241191,1461.107306 497.139681,1461.501723 497.429877,1469.409713 504.240650,1469.118429 504.338688,1471.424477 505.533176,1471.322428 505.529735,1469.219972 515.340204,1468.735238 514.411186,1452.150439 502.948780,1454.801014"/>
    <poly id="131964297" type="building.yes" color="255,230,230" fill="1" layer="-1.00" shape="320.688839,1087.789032 331.298396,1088.422509 331.635453,1079.613632 325.630913,1079.255299 325.718843,1077.445311 321.520715,1077.184649 321.620319,1076.587530 316.701885,1076.312357 316.433544,1080.329485 321.132872,1080.596859 320.688839,1087.789032"/>
    <poly id="131964298" type="building.yes" color="255,230,230" fill="1" layer="-1.00" shape="356.570116,1339.643762 360.466291,1340.238535 363.840578,1340.747989 369.170973,1341.549558 369.881925,1331.263448 370.993046,1331.303008 371.197436,1328.863130 363.183210,1327.743538 362.883621,1331.537086 357.883354,1330.925251 356.570116,1339.643762"/>
    <poly id="131964300" type="building.yes" color="255,230,230" fill="1" layer="-1.00" shape="1229.802098,787.775346 1223.398566,787.390794 1207.409468,786.863964 1210.314202,794.820963 1213.654895,794.962578 1218.994548,795.297982 1246.619512,796.696729 1248.572710,796.855520 1248.477778,788.987791 1246.621148,788.977058 1229.802098,787.775346"/>
    <poly id="131964302" type="building.yes" color="255,230,230" fill="1" layer="-1.00" shape="957.279747,1004.127909 957.916704,1019.868148 958.155560,1021.956768 958.605354,1025.599084 962.507167,1025.382404 962.237275,1021.090223 962.739278,1021.074772 962.619836,1017.177283 965.963289,1017.018539 965.514290,1003.476336 957.279747,1004.127909"/>
    <poly id="131964307" type="building.yes" color="255,230,230" fill="1" layer="-1.00" shape="666.589025,645.550102 662.137668,655.903107 660.695795,665.139800 660.203384,665.544940 659.337945,679.273807 662.851949,679.610402 664.210109,665.687751 668.432595,666.372181 672.247054,666.852972 676.558936,651.400458 666.589025,645.550102"/>
    <poly id="131964308" type="building.yes" color="255,230,230" fill="1" layer="-1.00" shape="1205.824387,1078.788820 1207.947824,1092.379790 1214.077112,1092.098260 1217.755620,1106.022895 1230.871991,1105.134564 1233.276004,1104.953515 1232.643671,1102.038797 1231.517647,1083.121916 1228.720897,1083.110955 1228.531044,1077.242067 1205.824387,1078.788820"/>
    <poly id="131964309" type="building.yes" color="255,230,230" fill="1" layer="-1.00" shape="240.116131,380.965926 237.425935,387.644377 246.348732,391.232067 248.025761,387.042588 247.415414,386.798407 248.524555,384.034767 249.434729,381.797973 250.076380,382.043267 251.665274,378.128738 242.704121,374.517431 240.116131,380.965926"/>
    <poly id="131964310" type="building.yes" color="255,230,230" fill="1" layer="-1.00" shape="204.131071,1546.620119 204.505198,1559.225140 206.314634,1559.233903 206.411761,1560.027121 209.318209,1560.030424 209.218579,1556.445138 212.215050,1556.340411 211.952660,1547.421216 211.929511,1546.530519 207.524621,1546.585134 204.131071,1546.620119"/>
    <poly id="131964311" type="building.yes" color="255,230,230" fill="1" layer="-1.00" shape="341.928643,1520.056265 341.950951,1522.070401 345.545190,1522.120498 348.058454,1522.165482 348.168770,1520.167192 353.671497,1520.085019 353.571500,1510.570921 342.968247,1510.660604 343.070936,1515.258238 341.864371,1515.259776 341.928643,1520.056265"/>
    <poly id="131964312" type="building.yes" color="255,230,230" fill="1" layer="-1.00" shape="488.397495,1165.651399 484.680836,1165.952824 484.395331,1162.750226 475.285875,1163.337874 475.676868,1170.837878 480.474561,1170.541584 497.700959,1169.075121 498.792987,1168.991664 498.021416,1155.460316 487.698189,1156.249426 488.397495,1165.651399"/>
    <poly id="131964313" type="building.yes" color="255,230,230" fill="1" layer="-1.00" shape="335.871505,691.156629 337.978961,691.164896 339.382113,691.148097 339.478128,692.853396 346.884296,693.028013 347.227165,675.910155 346.317500,675.710927 346.426386,673.312144 334.592794,673.146803 334.472306,691.062336 335.871505,691.156629"/>
    <poly id="131964323" type="building.yes" color="255,230,230" fill="1" layer="-1.00" shape="909.261515,777.207963 905.801658,776.672936 893.193796,774.932740 892.062641,783.357353 903.718168,784.118069 904.058686,780.503963 908.266721,780.932205 907.929768,784.446327 917.012585,785.282118 918.941253,778.443255 909.261515,777.207963"/>
    <poly id="131964324" type="building.yes" color="255,230,230" fill="1" layer="-1.00" shape="871.022725,1024.753838 870.730824,1030.738984 870.210632,1041.365602 870.104812,1043.453042 871.551676,1043.526914 872.608867,1043.542388 878.801294,1041.271678 881.010769,1041.272651 887.352570,1039.207502 890.851935,1032.702770 892.415197,1032.369230 893.285717,1024.880813 871.022725,1024.753838"/>
    <poly id="131964336" type="building.yes" color="255,230,230" fill="1" layer="-1.00" shape="320.094641,858.369601 320.048001,863.862909 321.345431,863.953579 321.420681,874.167555 327.721364,874.135967 327.795801,870.723727 329.400791,870.758605 329.770763,858.602754 329.810304,857.491819 320.094657,857.268383 320.094641,858.369601"/>
    <poly id="131964340" type="building.yes" color="255,230,230" fill="1" layer="-1.00" shape="343.741752,576.142550 342.927795,598.571753 349.131997,598.837066 349.230914,596.938483 353.134360,597.121911 354.061437,576.799058 343.741752,576.142550"/>
    <poly id="131964343" type="building.yes" color="255,230,230" fill="1" layer="-1.00" shape="1037.330616,707.908019 1034.538558,718.954084 1034.242023,720.456293 1033.598644,723.114087 1048.312902,726.431440 1048.607020,723.460842 1048.833310,722.389942 1049.006730,720.605250 1049.006690,719.070205 1049.648576,708.992981 1037.330616,707.908019"/>
    <poly id="131964344" type="building.yes" color="255,230,230" fill="1" layer="-1.00" shape="1203.633148,1142.960039 1203.744007,1152.574732 1201.895478,1152.998112 1202.100423,1159.979891 1207.825239,1159.394694 1213.904285,1158.544073 1216.300452,1158.362738 1216.058048,1150.456366 1220.757960,1150.268372 1220.307524,1141.386817 1203.633148,1142.960039"/>
    <poly id="131964346" type="building.yes" color="255,230,230" fill="1" layer="-1.00" shape="265.590044,1518.061980 265.742337,1523.028447 264.894518,1523.076138 264.951043,1526.771126 272.001436,1526.788458 276.200928,1526.782193 276.201678,1524.780003 275.202113,1524.688810 275.025875,1515.772674 265.507883,1515.967852 265.590044,1518.061980"/>
    <poly id="131964348" type="building.yes" color="255,230,230" fill="1" layer="-1.00" shape="342.437370,1542.076530 342.498785,1547.173249 341.428803,1547.079539 341.429014,1550.594552 342.545237,1550.489687 342.615181,1555.786932 356.018433,1555.607847 355.840165,1547.192182 354.931333,1547.193194 354.951734,1541.999275 342.437370,1542.076530"/>
    <poly id="131964350" type="building.yes" color="255,230,230" fill="1" layer="-1.00" shape="747.910235,800.818438 744.515072,800.886473 746.455334,818.108047 746.539933,818.811842 746.280867,826.956107 746.033983,834.978448 749.106700,834.943411 764.108141,835.255889 762.058758,814.504274 759.762049,800.028603 747.910235,800.818438"/>
    <poly id="131964354" type="building.yes" color="255,230,230" fill="1" layer="-1.00" shape="364.485428,1513.417782 364.489579,1509.780566 360.376538,1509.778727 360.338717,1513.481485 360.450829,1521.994906 367.575216,1521.914867 367.576674,1523.194114 370.075080,1523.216331 374.879443,1523.164929 374.752618,1513.305047 364.485428,1513.417782"/>
    <poly id="131964356" type="building.yes" color="255,230,230" fill="1" layer="-1.00" shape="366.345662,388.193873 366.817603,376.475471 351.191178,375.641218 350.927865,381.938820 349.912070,381.858174 349.638096,387.354511 366.345662,388.193873"/>
    <poly id="131964360" type="building.yes" color="255,230,230" fill="1" layer="-1.00" shape="225.932719,1559.653868 230.629083,1559.554021 230.634753,1561.155995 235.926174,1561.066204 235.648512,1550.155369 232.338660,1550.260058 232.435076,1550.853030 230.241445,1550.852835 230.133020,1549.936856 225.737933,1549.936190 225.932719,1559.653868"/>
    <poly id="131964361" type="building.yes" color="255,230,230" fill="1" layer="-1.00" shape="343.840676,550.907046 343.580933,556.003448 345.951346,556.110061 345.880899,557.208771 356.995761,557.760103 357.550856,546.567458 351.496479,546.274103 351.635332,543.253476 346.566604,543.006331 346.163346,551.034206 343.840676,550.907046"/>
    <poly id="131964364" type="building.yes" color="255,230,230" fill="1" layer="-1.00" shape="722.557976,1420.370639 723.706528,1424.193580 728.442652,1438.800755 732.847449,1437.433923 735.484861,1436.415633 732.497718,1426.809650 735.014891,1426.087406 733.350808,1421.122605 732.763560,1419.355276 731.990697,1417.080770 722.557976,1420.370639"/>
    <poly id="131964372" type="building.yes" color="255,230,230" fill="1" layer="-1.00" shape="752.336611,1091.743842 747.142229,1092.615333 747.517547,1095.932389 745.993982,1111.851367 744.855319,1122.689520 757.535890,1121.272992 756.862424,1110.058757 756.656492,1107.704359 756.500186,1106.375091 753.906021,1106.616281 752.336611,1091.743842"/>
    <poly id="131964374" type="building.yes" color="255,230,230" fill="1" layer="-1.00" shape="351.365887,1072.518446 353.069785,1072.634719 353.072585,1074.536924 359.466492,1074.742293 359.670706,1072.747346 365.494879,1073.110414 365.679972,1061.748860 365.702769,1060.448231 361.594181,1060.313089 351.787316,1060.019594 351.365887,1072.518446"/>
    <poly id="131964375" type="building.yes" color="255,230,230" fill="1" layer="-1.00" shape="417.093167,922.033719 417.094368,929.041523 416.881810,934.350954 422.076306,934.357941 422.088468,932.256046 429.492071,932.274960 429.590573,922.467601 426.813690,922.557818 424.604185,922.557006 424.609896,921.956544 417.093167,922.033719"/>
    <poly id="131964378" type="building.yes" color="255,230,230" fill="1" layer="-1.00" shape="358.384807,858.175212 358.275376,867.192411 361.257549,867.498790 361.248190,872.604107 365.256357,872.702295 365.258839,871.311956 369.662231,871.312981 369.672278,867.509128 368.465589,867.510666 368.593142,858.204901 358.384807,858.175212"/>
    <poly id="131964379" type="building.yes" color="255,230,230" fill="1" layer="-1.00" shape="1205.594975,689.401556 1204.145092,695.111738 1204.616897,695.284324 1205.238581,695.428895 1206.116525,695.638240 1220.296547,699.214995 1221.057789,695.015257 1230.224878,696.566409 1231.704600,696.819508 1231.989730,694.760721 1221.255245,692.997831 1205.594975,689.401556"/>
    <poly id="131964385" type="building.yes" color="255,230,230" fill="1" layer="-1.00" shape="209.694646,540.316548 208.386162,540.314499 208.618857,547.430626 217.425837,546.998625 217.427644,545.185575 221.925560,545.178721 220.694015,510.852602 214.688700,511.161789 214.567319,505.762624 208.760489,505.778546 209.694646,540.316548"/>
    <poly id="131964386" type="building.yes" color="255,230,230" fill="1" layer="-1.00" shape="652.466758,1390.552272 653.768012,1396.026914 654.086760,1397.195119 657.733648,1411.374074 661.200485,1411.264076 709.126300,1409.691439 707.549255,1405.141319 703.066521,1392.434193 699.331686,1381.822705 694.196772,1367.190219 692.611878,1362.639825 652.466758,1390.552272"/>
    <poly id="131964387" type="building.yes" color="255,230,230" fill="1" layer="-1.00" shape="994.441893,1001.060682 995.476805,1023.867441 988.235398,1024.354203 988.423864,1031.146268 989.225603,1031.074777 1001.314185,1030.227135 1001.225918,1025.018183 1005.227479,1024.860709 1013.231107,1024.312191 1011.912128,1000.026981 994.441893,1001.060682"/>
    <poly id="131964394" type="building.yes" color="255,230,230" fill="1" layer="-1.00" shape="1104.450839,1026.435039 1103.367950,1021.435273 1099.241352,1022.022037 1100.401019,1026.846568 1101.520589,1031.258098 1102.344074,1037.817015 1122.735536,1036.598753 1122.200462,1029.204746 1108.710341,1030.024345 1108.151985,1026.133418 1104.450839,1026.435039"/>
    <poly id="131964395" type="building.yes" color="255,230,230" fill="1" layer="-1.00" shape="517.003260,456.260787 531.198676,455.687435 531.204089,452.895646 532.500901,452.786110 532.049081,444.572045 523.452106,444.822001 523.104075,440.293491 516.524597,440.659810 517.003260,456.260787"/>
    <poly id="131964398" type="building.yes" color="255,230,230" fill="1" layer="-1.00" shape="1115.487774,864.403657 1113.950534,864.226393 1106.333901,862.708522 1104.601603,870.844682 1103.995566,873.114481 1131.114924,879.444653 1131.574558,877.325356 1133.851034,868.652463 1126.476313,866.942984 1120.368401,865.523480 1115.487774,864.403657"/>
    <poly id="131964405" type="building.yes" color="255,230,230" fill="1" layer="-1.00" shape="692.782774,660.955409 690.489403,672.975979 687.875738,672.660340 687.310873,675.977242 687.125728,680.731482 692.501736,681.368061 695.334514,681.691513 699.216621,682.252597 699.540925,681.507762 701.754315,666.236293 692.782774,660.955409"/>
    <poly id="131964407" type="building.yes" color="255,230,230" fill="1" layer="-1.00" shape="758.970723,694.994839 758.998864,695.963584 759.583045,700.456049 761.215297,709.835719 766.413959,709.731891 765.419763,702.455060 766.391514,701.132649 766.355750,700.597447 765.947100,695.577314 763.304223,694.982514 758.970723,694.994839"/>
    <poly id="131964408" type="building.yes" color="255,230,230" fill="1" layer="-1.00" shape="248.076115,800.134171 241.755761,800.276377 241.683193,802.976783 242.024022,809.473855 243.927975,809.474853 244.290137,818.675672 255.900936,818.488110 255.702406,811.295325 255.501107,804.180305 248.095706,804.428503 248.076115,800.134171"/>
    <poly id="131964409" type="building.yes" color="255,230,230" fill="1" layer="-1.00" shape="942.428200,602.462428 939.740350,626.181896 940.458331,626.263136 943.598710,626.530935 953.261545,627.587685 953.634961,624.809015 951.553722,624.723615 951.637048,623.925698 948.026729,623.652247 949.513445,603.071232 942.428200,602.462428"/>
    <poly id="131964412" type="building.yes" color="255,230,230" fill="1" layer="-1.00" shape="1077.055104,1023.254146 1077.189416,1025.416904 1080.778053,1024.755296 1082.094835,1031.543173 1077.896849,1031.715831 1078.496644,1037.299009 1083.082425,1037.017842 1095.464346,1035.635804 1092.924579,1020.750818 1092.646883,1019.750907 1077.055104,1023.254146"/>
    <poly id="131964413" type="building.yes" color="255,230,230" fill="1" layer="-1.00" shape="428.863198,589.929060 426.568510,590.336789 426.976883,592.731742 424.380469,593.251086 425.295786,598.133489 435.498766,595.905011 433.272816,586.459830 428.360916,587.530764 428.863198,589.929060"/>
    <poly id="131964415" type="building.yes" color="255,230,230" fill="1" layer="-1.00" shape="1099.212728,408.270216 1110.979633,410.759388 1113.414509,399.188908 1116.607011,397.122711 1131.940764,402.642537 1137.397732,392.681669 1127.962986,389.396982 1128.259114,388.784642 1111.028870,382.830026 1103.532278,386.711387 1100.002033,404.160459 1099.212728,408.270216"/>
    <poly id="131964416" type="building.yes" color="255,230,230" fill="1" layer="-1.00" shape="474.166824,444.323681 471.189087,452.248757 470.095131,451.942838 468.293677,456.761873 469.396559,457.257207 466.427759,465.371701 476.448638,469.143440 484.175247,448.005999 474.166824,444.323681"/>
    <poly id="131964419" type="building.yes" color="255,230,230" fill="1" layer="-1.00" shape="900.847257,1146.719304 904.942979,1157.532898 907.733865,1156.609135 920.594179,1152.351736 920.410844,1152.000365 919.695489,1152.286292 919.192726,1151.445210 917.746954,1148.267909 918.443884,1148.059188 915.315810,1141.306824 900.847257,1146.719304"/>
    <poly id="131964421" type="building.yes" color="255,230,230" fill="1" layer="-1.00" shape="1066.064226,1074.541484 1060.759642,1074.986092 1059.855783,1075.065049 1057.120733,1075.301085 1057.975300,1089.547452 1061.078522,1089.313441 1082.461608,1088.186090 1081.868592,1080.000250 1081.195074,1073.190851 1076.284918,1073.560544 1066.064226,1074.541484"/>
    <poly id="131964422" type="building.yes" color="255,230,230" fill="1" layer="-1.00" shape="613.662755,493.074632 613.314611,497.567222 662.570870,492.715244 662.159941,488.195600 613.662755,493.074632"/>
    <poly id="131964423" type="building.apartments" color="255,230,230" fill="1" layer="-1.00" shape="474.727711,823.074239 470.133260,822.276574 466.587840,835.364948 475.109671,834.789696 476.507739,834.694884 482.717294,833.703588 485.632749,830.603876 487.328274,828.317220 487.822554,826.099014 487.879794,825.811843 474.727711,823.074239"/>
    <poly id="131964428" type="building.yes" color="255,230,230" fill="1" layer="-1.00" shape="1056.493611,1038.448741 1049.185463,1038.610467 1049.448248,1047.707759 1060.758512,1047.811309 1074.093227,1047.831448 1078.371725,1047.817392 1081.620583,1047.455109 1080.993129,1042.427119 1067.579712,1043.294037 1067.191476,1037.929763 1056.493611,1038.448741"/>
    <poly id="131964429" type="building.yes" color="255,230,230" fill="1" layer="-1.00" shape="887.179929,903.950832 887.119691,904.760697 887.266013,909.882723 887.414359,912.312937 899.878946,911.912318 899.989365,913.429052 902.912473,913.633471 902.914884,911.809304 902.776748,909.312713 902.831487,906.022114 887.179929,903.950832"/>
    <poly id="131964430" type="building.yes" color="255,230,230" fill="1" layer="-1.00" shape="465.174674,1496.692217 469.064683,1496.797413 477.876359,1497.077934 478.588397,1497.103299 478.796131,1490.392135 476.994098,1490.394682 477.089619,1486.393643 470.700389,1486.288403 470.794338,1485.190528 465.795603,1484.979096 465.174674,1496.692217"/>
    <poly id="131964434" type="building.yes" color="255,230,230" fill="1" layer="-1.00" shape="438.618005,1038.383793 433.450543,1038.500106 433.611467,1045.202145 434.450341,1045.187524 434.517569,1048.360097 445.566940,1048.086180 445.413283,1041.840460 441.884446,1041.926135 441.796432,1040.877398 440.087948,1038.469510 438.618005,1038.383793"/>
    <poly id="131964435" type="building.yes" color="255,230,230" fill="1" layer="-1.00" shape="1271.372961,1025.747363 1267.865096,1026.778828 1273.182674,1041.974551 1273.600050,1043.669124 1276.197335,1043.561739 1276.407284,1045.360133 1283.698118,1043.929968 1281.364839,1037.528393 1279.632879,1032.716732 1276.006420,1024.133215 1271.372961,1025.747363"/>
    <poly id="131964439" type="building.yes" color="255,230,230" fill="1" layer="-1.00" shape="184.191741,1069.828756 184.347951,1078.432705 184.300925,1079.754717 186.060465,1079.628209 213.865175,1079.015566 213.861936,1078.225688 233.574557,1077.792433 233.138108,1057.688024 213.025553,1058.129304 213.299494,1068.928756 184.191741,1069.828756"/>
    <poly id="131964447" type="building.yes" color="255,230,230" fill="1" layer="-1.00" shape="1052.899807,996.907576 1053.382591,1010.595611 1061.314231,1010.089076 1061.325478,1011.090594 1062.935886,1011.192596 1063.941085,1011.128381 1063.870312,1007.844417 1069.866350,1007.346637 1068.912091,996.111181 1059.676394,996.493276 1052.899807,996.907576"/>
    <poly id="131964449" type="building.yes" color="255,230,230" fill="1" layer="-1.00" shape="375.039448,779.469203 375.229054,784.047679 377.327947,783.855435 377.413067,794.670432 381.817699,794.638136 384.114514,794.608668 384.525775,785.257387 381.633825,785.276791 381.608650,783.562888 381.549314,779.066913 375.039448,779.469203"/>
    <poly id="131964463" type="building.yes" color="255,230,230" fill="1" layer="-1.00" shape="336.422062,465.871496 337.010045,450.230660 331.263552,449.870424 331.253110,450.604198 317.622787,450.052397 317.185799,460.570714 312.819752,460.393100 312.636957,464.869328 336.422062,465.871496"/>
    <poly id="131964465" type="building.yes" color="255,230,230" fill="1" layer="-1.00" shape="994.626874,822.045652 989.635535,850.365881 1005.808679,854.291408 1009.151139,833.531920 1010.231579,826.751785 1011.205073,821.869951 1010.948095,816.777336 1008.857904,816.724964 1008.151453,822.027901 998.943351,822.288728 994.626874,822.045652"/>
    <poly id="131964466" type="building.yes" color="255,230,230" fill="1" layer="-1.00" shape="690.405782,636.855129 690.375195,637.933014 686.164080,637.148865 685.771230,638.058108 675.850450,637.203921 674.250187,638.793152 683.246063,644.931380 694.466164,649.780725 695.013815,647.386457 694.960021,636.806130 690.405782,636.855129"/>
    <poly id="131964472" type="building.yes" color="255,230,230" fill="1" layer="-1.00" shape="889.084156,958.401515 889.332199,963.527171 887.763474,963.793777 886.849797,963.928027 887.238019,973.908526 890.124557,973.599956 890.488525,976.794261 908.537980,974.679712 907.715474,957.987370 906.214502,958.111784 889.084156,958.401515"/>
    <poly id="131964473" type="building.yes" color="255,230,230" fill="1" layer="-1.00" shape="353.883929,1014.988741 352.273918,1014.875811 352.073181,1016.993239 351.469851,1016.994009 351.357346,1021.695213 361.364477,1022.307288 361.774796,1015.403124 359.576314,1015.313737 359.882393,1010.897510 353.990024,1010.687752 353.883929,1014.988741"/>
    <poly id="131964475" type="building.yes" color="255,230,230" fill="1" layer="-1.00" shape="393.269638,1296.467819 388.271458,1296.456701 388.237493,1312.373127 390.470335,1312.374768 410.974084,1314.128233 411.060298,1301.806534 411.088549,1296.612894 405.181500,1296.602769 405.173596,1298.804928 393.273827,1298.770519 393.269638,1296.467819"/>
    <poly id="131964476" type="building.yes" color="255,230,230" fill="1" layer="-1.00" shape="708.662468,822.800585 708.772230,837.743311 746.252225,837.867209 746.129583,836.472402 746.033983,834.978448 746.280867,826.956107 733.656263,827.006507 733.681580,822.780492 732.074592,822.801058 730.692561,822.885262 708.662468,822.800585"/>
    <poly id="131964479" type="building.yes" color="255,230,230" fill="1" layer="-1.00" shape="432.755205,400.947199 432.369446,403.858925 436.274114,404.231537 434.900985,411.546353 429.792086,410.663683 429.110667,414.176670 436.121180,415.349514 438.896534,415.748661 441.632915,401.396764 432.755205,400.947199"/>
    <poly id="131964480" type="building.yes" color="255,230,230" fill="1" layer="-1.00" shape="1271.447538,740.208880 1271.303697,749.714359 1279.027404,750.212883 1302.672471,752.259387 1302.352689,741.257902 1299.117553,741.231250 1299.042537,736.534437 1295.550298,735.808937 1275.730914,733.487628 1275.254106,740.689759 1271.447538,740.208880"/>
    <poly id="131964481" type="building.yes" color="255,230,230" fill="1" layer="-1.00" shape="949.513445,603.071232 948.026729,623.652247 951.637048,623.925698 951.553722,624.723615 953.634961,624.809015 954.063024,618.962213 958.207872,619.188003 959.458426,609.176999 960.032889,604.058449 956.528258,603.677531 949.513445,603.071232"/>
    <poly id="131964482" type="building.yes" color="255,230,230" fill="1" layer="-1.00" shape="719.892540,639.674944 719.834316,647.681760 723.241454,648.159183 723.169911,653.462523 719.562477,652.888972 718.630047,660.141597 741.408660,665.180653 742.250450,646.845827 741.034796,646.657877 741.324700,643.142076 719.892540,639.674944"/>
    <poly id="131964483" type="building.yes" color="255,230,230" fill="1" layer="-1.00" shape="493.973462,1434.481297 497.380145,1434.079858 496.287777,1426.476995 502.490737,1425.874843 503.586046,1430.096283 507.985553,1429.096183 508.588540,1428.884073 507.197875,1424.596492 505.588088,1422.281080 492.787365,1423.571431 493.973462,1434.481297"/>
    <poly id="131964484" type="building.yes" color="255,230,230" fill="1" layer="-1.00" shape="467.646779,1251.986587 467.807135,1254.083506 470.907197,1254.594370 470.913517,1256.396594 473.001269,1256.292983 473.015565,1254.791827 478.613529,1254.902238 478.740544,1246.497438 467.517565,1246.375769 467.519524,1250.280167 467.646779,1251.986587"/>
    <poly id="131964485" type="building.yes" color="255,230,230" fill="1" layer="-1.00" shape="942.375844,823.706790 941.805173,828.280426 940.783179,842.426406 949.835088,843.906310 951.178364,828.881917 953.445028,810.597927 955.414667,810.734966 955.605551,806.703951 947.943622,806.452740 946.945113,823.892112 942.375844,823.706790"/>
    <poly id="131964486" type="building.yes" color="255,230,230" fill="1" layer="-1.00" shape="474.926818,1141.523138 475.308340,1154.128464 485.918936,1153.850125 485.814402,1153.045513 490.416089,1152.753367 489.628001,1140.344901 484.337307,1140.623630 484.057324,1132.426802 477.249753,1132.618136 477.421906,1141.422911 474.926818,1141.523138"/>
    <poly id="131964488" type="building.yes" color="255,230,230" fill="1" layer="-1.00" shape="295.617538,475.442736 305.343648,476.489597 305.597252,474.207200 308.821029,474.555507 309.097006,472.084808 306.021524,471.752901 306.456162,467.686077 296.676048,466.615046 295.617538,475.442736"/>
    <poly id="131964491" type="building.yes" color="255,230,230" fill="1" layer="-1.00" shape="1256.307928,864.117872 1256.669638,866.055171 1257.991511,871.819910 1261.494181,871.155325 1261.701249,873.253950 1258.505872,873.651429 1259.792424,884.131285 1266.521480,882.858986 1263.293258,862.910345 1261.757376,863.133540 1256.307928,864.117872"/>
    <poly id="131964496" type="building.yes" color="255,230,230" fill="1" layer="-1.00" shape="828.376537,413.621345 828.996383,419.750238 834.613332,419.349911 844.173174,418.689781 852.289477,418.078286 851.960500,412.582679 851.652910,412.638448 851.539782,411.855769 828.376537,413.621345"/>
    <poly id="131964501" type="landuse.residential" color="235,235,227" fill="1" layer="-3.00" shape="424.628424,1433.190366 440.032426,1433.816842 441.251820,1417.397575 443.856650,1417.512596 446.253566,1415.106315 446.265703,1414.105637 446.359489,1409.492748 435.452254,1409.093152 435.559385,1408.284956 425.859131,1407.872747 424.628424,1433.190366"/>
    <poly id="131964504" type="amenity.place_of_worship" color="237,199,199" fill="1" layer="-1.00" shape="603.491910,793.011927 603.415392,801.095948 601.802159,801.071831 601.539736,829.104700 614.189678,829.221790 614.228679,824.829416 614.352898,811.229861 614.445124,801.166423 612.291142,801.145280 612.358659,793.094307 603.491910,793.011927"/>