<?xml version="1.0" encoding="UTF-8"?>

<!-- generated on Tue Sep 10 14:40:53 2019 by Eclipse SUMO polyconvert Version 1.2.0
<configuration xmlns:xsi="http://www.w3.org/2001/XMLSchema-instance" xsi:noNamespaceSchemaLocation="http://sumo.dlr.de/xsd/polyconvertConfiguration.xsd">

    <input>
        <net-file value="osm.net.xml"/>
        <osm-files value="osm_bbox.osm.xml"/>
        <osm.keep-full-type value="true"/>
        <type-file value="/usr/share/sumo/data/typemap/osmPolyconvert.typ.xml"/>
    </input>

    <output>
        <output-file value="osm.poly.xml"/>
    </output>

    <processing>
        <poi-layer-offset value="5"/>
    </processing>

    <report>
        <verbose value="true"/>
    </report>

</configuration>
-->

<additional xmlns:xsi="http://www.w3.org/2001/XMLSchema-instance" xsi:noNamespaceSchemaLocation="http://sumo.dlr.de/xsd/additional_file.xsd">
    <location netOffset="-582663.11,-4505101.93" convBoundary="0.00,0.00,4388.28,8233.82" origBoundary="-74.021132,40.692395,-73.968640,40.766480" projParameter="+proj=utm +zone=18 +ellps=WGS84 +datum=WGS84 +units=m +no_defs"/>

    <poly id="108153375" type="leisure.park" color="207,245,201" fill="1" layer="-2.00" shape="1591.337134,2628.363351 1598.719984,2623.917559 1605.107533,2628.264422 1650.568416,2600.293039 1649.233955,2593.583312 1654.584568,2590.313502 1690.219169,2656.143252 1683.275752,2660.571747 1639.265213,2688.048713 1633.947956,2691.363320 1591.337134,2628.363351"/>
    <poly id="108153380" type="leisure.park" color="207,245,201" fill="1" layer="-2.00" shape="1606.042049,2516.998824 1561.311143,2545.378449 1555.160149,2548.461606 1552.668459,2548.433318 1550.435444,2545.710161 1542.012811,2469.098994 1541.289423,2466.592814 1551.070864,2469.645901 1557.411537,2469.951028 1566.474630,2470.053927 1569.554449,2469.622609 1576.915635,2468.584886 1583.973126,2465.278897 1588.266599,2462.119155 1590.600862,2460.391537 1608.193781,2507.542087 1608.590245,2512.054037 1608.348322,2512.528679 1606.974820,2515.199781 1606.042049,2516.998824"/>
    <poly id="108153674" type="leisure.park" color="207,245,201" fill="1" layer="-2.00" shape="1140.012639,3214.980308 1134.627201,3210.178870 1128.355880,3203.790932 1123.273119,3193.131024 1122.227257,3184.770446 1121.884222,3175.507437 1124.690390,3167.867603 1129.311594,3159.571048 1136.212356,3150.623025 1145.335822,3145.308300 1154.650789,3142.482616 1163.047682,3141.667145 1173.449256,3143.594353 1183.361624,3148.446994 1190.982542,3155.749505 1195.435390,3162.350079 1200.047480,3175.036396 1205.272102,3194.057830 1210.965565,3211.952159 1222.514178,3231.944398 1219.124185,3231.450871 1211.237179,3227.520351 1204.254511,3224.288395 1192.723854,3222.126332 1180.944828,3221.760017 1167.580406,3221.164861 1158.306305,3220.382813 1151.056647,3219.845696 1144.972612,3217.068036 1140.012639,3214.980308"/>
    <poly id="108153676" type="leisure.park" color="207,245,201" fill="1" layer="-2.00" shape="1343.076411,3368.943238 1323.089848,3293.788872 1304.218173,3311.860323 1343.076411,3368.943238"/>
    <poly id="108235836" type="leisure.park" color="207,245,201" fill="1" layer="-2.00" shape="2709.224550,2658.031126 2730.452023,2650.037680 2722.704713,2628.843344 2737.956011,2622.657391 2754.115313,2616.115553 2737.468040,2566.719230 2737.587657,2556.329012 2740.879670,2545.542333 2747.326978,2536.579427 2770.129029,2524.662959 2799.282872,2509.156028 2778.907461,2478.334945 2775.254153,2472.808415 2753.079449,2469.844137 2758.096008,2431.077750 2744.029018,2430.482802 2696.770332,2428.484492 2649.487028,2447.724568 2644.725540,2449.668194 2642.573665,2478.120402 2643.286427,2480.049267 2653.052858,2506.407010 2663.040247,2533.377928 2670.405922,2553.257750 2676.870547,2570.684746 2683.064327,2587.420300 2696.926923,2624.838557 2701.228143,2636.456474 2709.224550,2658.031126"/>
    <poly id="109458104" type="leisure.common" color="207,245,201" fill="1" layer="-2.00" shape="1835.851461,2173.383135 1806.184050,2171.746353 1770.591781,2168.132699 1782.833402,2193.318335 1786.400605,2198.321572 1791.343029,2201.997114 1843.481563,2219.965592 1847.312687,2221.818873 1855.431182,2225.519536 1860.585582,2229.863666 1864.839432,2234.652724 1876.692124,2228.692731 1835.851461,2173.383135"/>
    <poly id="109458121" type="building.apartments" color="255,230,230" fill="1" layer="-1.00" shape="1825.355377,2356.192732 1832.991987,2330.245302 1850.740265,2335.476719 1843.238743,2361.425670 1825.355377,2356.192732"/>
    <poly id="109458133" type="building.apartments" color="255,230,230" fill="1" layer="-1.00" shape="1784.928641,2380.323561 1792.753798,2354.866732 1810.738800,2360.078545 1802.807297,2385.967127 1784.928641,2380.323561"/>
    <poly id="111563947" type="leisure.park" color="207,245,201" fill="1" layer="-2.00" shape="2871.570217,3360.946296 2870.759802,3366.032837 2776.980253,3412.668870 2773.271986,3401.690532 2871.570217,3360.946296"/>
    <poly id="124814434" type="leisure.park" color="207,245,201" fill="1" layer="-2.00" shape="1025.667871,2610.202855 1015.707221,2616.296541 1013.215881,2566.064907 1023.407111,2564.248112 1025.667871,2610.202855"/>
    <poly id="140391511" type="landuse.grass" color="194,194,130" fill="1" layer="-3.00" shape="1471.994154,2155.947619 1465.502557,2162.968229 1460.907329,2168.889038 1457.979422,2175.283940 1456.432896,2182.038670 1456.507756,2187.357412 1457.676409,2192.322188 1460.116990,2196.868405 1463.150593,2200.522080 1467.847205,2204.283431 1473.031939,2206.718072 1478.571287,2207.680162 1483.920501,2207.529893 1489.261247,2205.891853 1494.054706,2203.348340 1497.347282,2200.554661 1499.673263,2197.328139 1501.523193,2193.618828 1502.241890,2190.585013 1502.390108,2187.200561 1502.321354,2183.580505 1501.679348,2179.854026 1499.915298,2175.992696 1497.681507,2172.581223 1494.659514,2169.393953 1489.242644,2165.824253 1481.485718,2160.762543 1471.994154,2155.947619"/>
    <poly id="147035202" type="leisure.park" color="207,245,201" fill="1" layer="-2.00" shape="1019.564843,2737.852161 1017.389910,2717.988233 982.785646,2739.335781 982.548824,2743.107812 1019.564843,2737.852161"/>
    <poly id="157880278" type="building.yes" color="255,230,230" fill="1" layer="-1.00" shape="1381.413790,2400.676429 1368.543968,2408.490824 1367.805677,2407.294539 1345.071483,2370.133767 1358.545204,2361.959802 1368.624985,2355.845708 1376.918667,2350.799396 1400.391055,2389.156554 1390.796141,2394.976343 1381.413790,2400.676429"/>
    <poly id="161026132" type="landuse.residential" color="235,235,227" fill="1" layer="-3.00" shape="1781.793949,2404.124067 1765.225575,2307.103065 1877.578909,2330.275878 1891.757897,2338.109017 1781.793949,2404.124067"/>
    <poly id="161026134" type="amenity.parking" color="184,184,179" fill="1" layer="-1.00" shape="1862.430057,2287.449023 1743.888097,2252.015956 1742.896233,2179.552460 1751.034638,2182.254046 1757.521547,2188.289677 1762.185382,2197.146703 1767.534407,2205.922713 1774.458728,2212.862607 1783.009531,2217.922565 1792.484601,2221.194516 1836.051649,2235.912381 1841.263990,2238.136658 1844.820206,2241.874162 1863.665419,2280.602006 1862.430057,2287.449023"/>
    <poly id="164417588" type="leisure.playground" color="207,245,201" fill="1" layer="-2.00" shape="1768.278755,2472.314705 1823.622477,2477.196907 1826.152690,2448.626731 1770.817076,2443.755711 1768.278755,2472.314705"/>
    <poly id="170177364" type="leisure.track" color="207,245,201" fill="1" layer="-2.00" shape="2276.474993,2671.048669 2261.078578,2630.926978 2260.104356,2626.741430 2260.950035,2622.232552 2263.590269,2618.876634 2267.133687,2616.319308 2271.326887,2616.034255 2275.967292,2616.531472 2279.787809,2619.284136 2281.787841,2623.148370 2296.953443,2663.500607 2297.468997,2667.902949 2296.742946,2672.291071 2294.439168,2675.772954 2290.441067,2678.202936 2285.573344,2678.380334 2280.943402,2676.972856 2278.025396,2674.341546 2276.474993,2671.048669"/>
    <poly id="170177364#1" type="sport.soccer" color="79,230,125" fill="1" layer="-2.00" shape="2276.474993,2671.048669 2261.078578,2630.926978 2260.104356,2626.741430 2260.950035,2622.232552 2263.590269,2618.876634 2267.133687,2616.319308 2271.326887,2616.034255 2275.967292,2616.531472 2279.787809,2619.284136 2281.787841,2623.148370 2296.953443,2663.500607 2297.468997,2667.902949 2296.742946,2672.291071 2294.439168,2675.772954 2290.441067,2678.202936 2285.573344,2678.380334 2280.943402,2676.972856 2278.025396,2674.341546 2276.474993,2671.048669"/>
    <poly id="181374390" type="leisure.pitch" color="207,245,201" fill="1" layer="-2.00" shape="2577.381274,3396.349998 2572.153848,3383.033961 2544.005975,3392.924474 2549.146721,3407.172074 2577.381274,3396.349998"/>
    <poly id="181374390#1" type="sport.basketball" color="79,230,125" fill="1" layer="-2.00" shape="2577.381274,3396.349998 2572.153848,3383.033961 2544.005975,3392.924474 2549.146721,3407.172074 2577.381274,3396.349998"/>
    <poly id="181374393" type="leisure.pitch" color="207,245,201" fill="1" layer="-2.00" shape="2554.997526,3422.105068 2583.103819,3411.414766 2577.970208,3398.022088 2549.863873,3408.712409 2554.997526,3422.105068"/>
    <poly id="181374393#1" type="sport.basketball" color="79,230,125" fill="1" layer="-2.00" shape="2554.997526,3422.105068 2583.103819,3411.414766 2577.970208,3398.022088 2549.863873,3408.712409 2554.997526,3422.105068"/>
    <poly id="205499831" type="leisure.common" color="207,245,201" fill="1" layer="-2.00" shape="1987.413950,3239.480741 1987.247658,3237.769117 1987.639284,3236.019453 1989.081294,3234.748067 1990.668990,3234.033450 2003.931279,3228.034269 2005.102987,3227.503642 2006.995825,3227.436434 2008.977971,3228.424947 2010.529931,3230.840722 2030.925397,3303.625931 2030.833034,3305.057049 2030.165788,3305.793271 2028.955031,3306.045895 2027.845669,3305.555836 1987.413950,3239.480741"/>
    <poly id="219612698" type="leisure.common" color="207,245,201" fill="1" layer="-2.00" shape="1217.358875,2925.968271 1227.118380,2920.460994 1205.566715,2867.704452 1203.020685,2862.779649 1201.358395,2864.115307 1217.358875,2925.968271"/>
    <poly id="222382768" type="landuse.residential" color="235,235,227" fill="1" layer="-3.00" shape="2686.010270,2105.921689 2668.478598,2242.709113 2722.437888,2249.824691 2747.921839,2253.048998 2758.753172,2254.417142 3051.281367,2291.441719 3068.820167,2154.643982 2735.865199,2112.268484 2686.010270,2105.921689"/>
    <poly id="22926980" type="leisure.park" color="207,245,201" fill="1" layer="-2.00" shape="805.324464,2773.984645 880.125235,2762.669981 884.610412,2750.696966 869.901268,2666.155651 866.100648,2656.343041 858.352021,2655.056769 810.712721,2680.998933 801.696206,2709.063393 805.324464,2773.984645"/>
    <poly id="237397736" type="leisure.park" color="207,245,201" fill="1" layer="-2.00" shape="2563.272973,2457.780205 2550.098005,2462.635912 2546.966074,2455.094902 2562.497109,2456.194790 2563.272973,2457.780205"/>
    <poly id="239982768" type="leisure.park" color="207,245,201" fill="1" layer="-2.00" shape="1276.770286,3382.436438 1335.011935,3375.479841 1294.864120,3317.405385 1271.146375,3339.019134 1276.770286,3382.436438"/>
    <poly id="242107186" type="amenity.parking" color="184,184,179" fill="1" layer="-1.00" shape="2224.797437,2289.810172 2180.563547,2283.997358 2177.158538,2309.160195 2185.047181,2310.038663 2184.591591,2314.418784 2221.210709,2318.290443 2222.068839,2312.693698 2223.171734,2303.424957 2223.667294,2299.245133 2224.797437,2289.810172"/>
    <poly id="242109830" type="amenity.parking" color="184,184,179" fill="1" layer="-1.00" shape="2180.563547,2283.997358 2172.906238,2282.832886 2169.380495,2312.646127 2176.653288,2313.450932 2177.158538,2309.160195 2180.563547,2283.997358"/>
    <poly id="242113348" type="leisure.pitch" color="207,245,201" fill="1" layer="-2.00" shape="2031.614410,2210.487048 2045.246445,2212.219182 2048.377940,2189.517842 2034.533807,2187.860996 2031.614410,2210.487048"/>
    <poly id="242113348#1" type="sport.basketball" color="79,230,125" fill="1" layer="-2.00" shape="2031.614410,2210.487048 2045.246445,2212.219182 2048.377940,2189.517842 2034.533807,2187.860996 2031.614410,2210.487048"/>
    <poly id="242113350" type="leisure.pitch" color="207,245,201" fill="1" layer="-2.00" shape="2029.885857,2210.200865 2032.826154,2187.963624 2019.341217,2185.922335 2016.330345,2208.425224 2029.885857,2210.200865"/>
    <poly id="242113350#1" type="sport.basketball" color="79,230,125" fill="1" layer="-2.00" shape="2029.885857,2210.200865 2032.826154,2187.963624 2019.341217,2185.922335 2016.330345,2208.425224 2029.885857,2210.200865"/>
    <poly id="242113355" type="leisure.playground" color="207,245,201" fill="1" layer="-2.00" shape="1991.064427,2206.049689 2049.672603,2213.746300 2055.200198,2187.619569 1998.481037,2179.455985 1991.064427,2206.049689"/>
    <poly id="242113919" type="amenity.parking" color="184,184,179" fill="1" layer="-1.00" shape="2121.367105,2257.608134 2160.202438,2261.993304 2160.878253,2256.083610 2162.553120,2241.114921 2163.198267,2235.671165 2167.162122,2200.789273 2141.344813,2197.874020 2141.082036,2200.169151 2138.780111,2220.481889 2138.611828,2221.901034 2125.593527,2220.431090 2125.433312,2221.883634 2124.372131,2231.208373 2123.729751,2237.151758 2122.118201,2251.022070 2121.367105,2257.608134"/>
    <poly id="247841369" type="building.yes" color="255,230,230" fill="1" layer="-1.00" shape="2759.460767,3450.913790 2749.356026,3456.281865 2751.712078,3460.727656 2761.816815,3455.359584 2759.460767,3450.913790"/>
    <poly id="247841372" type="building.yes" color="255,230,230" fill="1" layer="-1.00" shape="2761.816815,3455.359584 2751.712078,3460.727656 2754.324564,3465.642691 2764.429169,3460.285724 2761.816815,3455.359584"/>
    <poly id="247841375" type="building.yes" color="255,230,230" fill="1" layer="-1.00" shape="2764.429169,3460.285724 2754.324564,3465.642691 2756.722070,3470.155574 2766.826670,3464.798610 2764.429169,3460.285724"/>
    <poly id="247841380" type="building.yes" color="255,230,230" fill="1" layer="-1.00" shape="2767.277089,3464.559552 2766.826670,3464.798610 2756.722070,3470.155574 2746.651522,3475.490740 2742.303089,3467.291684 2739.362578,3468.856529 2740.379628,3470.755607 2739.614686,3471.168679 2748.179229,3487.321021 2772.501651,3474.422937 2767.277089,3464.559552"/>
    <poly id="247841386" type="building.yes" color="255,230,230" fill="1" layer="-1.00" shape="2775.990400,3480.991194 2772.501651,3474.422937 2748.179229,3487.321021 2746.224650,3488.353214 2749.713287,3494.932559 2756.342089,3491.411813 2775.990400,3480.991194"/>
    <poly id="247841398" type="building.yes" color="255,230,230" fill="1" layer="-1.00" shape="2775.990400,3480.991194 2756.342089,3491.411813 2759.971217,3498.259233 2779.619516,3487.838624 2775.990400,3480.991194"/>
    <poly id="247841456" type="building.yes" color="255,230,230" fill="1" layer="-1.00" shape="2677.713824,3486.276642 2671.034257,3489.807975 2679.696633,3509.947031 2686.400883,3506.471500 2685.989476,3505.523083 2683.324217,3499.319616 2677.713824,3486.276642"/>
    <poly id="247841459" type="building.yes" color="255,230,230" fill="1" layer="-1.00" shape="2683.016816,3483.462213 2677.713824,3486.276642 2683.324217,3499.319616 2684.062794,3498.995052 2686.234747,3504.027116 2685.989476,3505.523083 2686.400883,3506.471500 2688.605464,3511.603861 2695.438186,3507.974387 2692.321627,3502.087684 2691.350783,3501.310462 2686.423525,3492.027869 2684.859870,3492.853636 2684.019510,3490.279369 2686.059043,3489.203729 2684.455138,3486.187690 2683.016816,3483.462213"/>
    <poly id="247841467" type="building.yes" color="255,230,230" fill="1" layer="-1.00" shape="2689.025123,3480.278433 2683.458786,3483.223053 2684.905552,3485.948627 2684.455138,3486.187690 2686.059043,3489.203729 2695.888600,3507.735324 2701.896893,3504.551555 2701.235577,3503.300502 2693.861404,3489.393449 2690.810865,3483.640732 2689.025123,3480.278433"/>
    <poly id="247841471" type="building.yes" color="255,230,230" fill="1" layer="-1.00" shape="2700.430554,3485.916375 2699.314093,3485.315110 2696.751228,3480.489483 2697.380019,3480.163656 2695.585961,3476.790158 2689.025123,3480.278433 2690.810865,3483.640732 2691.694677,3483.173512 2694.249098,3487.999040 2693.861404,3489.393449 2701.235577,3503.300502 2702.946148,3503.653257 2705.715533,3508.880941 2705.488426,3510.266095 2708.389993,3515.750652 2715.383173,3511.390302 2714.920330,3510.507903 2718.846485,3508.432595 2718.061049,3506.958069 2718.842876,3506.545189 2716.247018,3501.652561 2709.983695,3504.977711 2707.470494,3500.241469 2707.903890,3500.013313 2705.647125,3495.746313 2704.584812,3496.311396 2701.997385,3491.418871 2703.051126,3490.864792 2700.430554,3485.916375"/>
    <poly id="247841481" type="building.yes" color="255,230,230" fill="1" layer="-1.00" shape="2704.828542,3494.215896 2711.635697,3490.608347 2702.393126,3473.182600 2695.585961,3476.790158 2697.380019,3480.163656 2700.430554,3485.916375 2703.051126,3490.864792 2704.828542,3494.215896"/>
    <poly id="247841483" type="building.yes" color="255,230,230" fill="1" layer="-1.00" shape="2709.472724,3469.389447 2702.946293,3472.822596 2718.402763,3502.221386 2724.929176,3498.788251 2709.472724,3469.389447"/>
    <poly id="247841485" type="building.yes" color="255,230,230" fill="1" layer="-1.00" shape="2716.364485,3465.771773 2709.472724,3469.389447 2724.929176,3498.788251 2728.433695,3505.456586 2734.887545,3500.990124 2716.364485,3465.771773"/>
    <poly id="247841489" type="building.yes" color="255,230,230" fill="1" layer="-1.00" shape="2722.678771,3462.425010 2716.364485,3465.771773 2734.887545,3500.990124 2740.746904,3496.805477 2724.422660,3465.753529 2722.678771,3462.425010"/>
    <poly id="247841491" type="building.yes" color="255,230,230" fill="1" layer="-1.00" shape="2729.371179,3458.516397 2722.529949,3462.145743 2722.678771,3462.425010 2724.422660,3465.753529 2725.382996,3465.242786 2729.020858,3471.335344 2728.279345,3472.647961 2730.891842,3477.562988 2732.013661,3476.965288 2736.684565,3485.767568 2735.554301,3486.365170 2738.985237,3492.821722 2745.681854,3489.279543 2733.835182,3466.949921 2732.815345,3467.493285 2730.211419,3462.567254 2731.231256,3462.023890 2729.371179,3458.516397"/>
    <poly id="247841492" type="building.yes" color="255,230,230" fill="1" layer="-1.00" shape="2738.260412,3453.811529 2729.371179,3458.516397 2731.231256,3462.023890 2732.826703,3465.039841 2741.715931,3460.334977 2738.260412,3453.811529"/>
    <poly id="247841534" type="building.yes" color="255,230,230" fill="1" layer="-1.00" shape="2759.460767,3450.913790 2756.005259,3444.390333 2738.260412,3453.811529 2741.715931,3460.334977 2749.356026,3456.281865 2759.460767,3450.913790"/>
    <poly id="247841538" type="building.yes" color="255,230,230" fill="1" layer="-1.00" shape="2755.832505,3500.454195 2759.296558,3506.966649 2757.367447,3507.988030 2760.773529,3514.399898 2786.481049,3500.773973 2779.619516,3487.838624 2759.971217,3498.259233 2755.832505,3500.454195"/>
    <poly id="247844195" type="building.yes" color="255,230,230" fill="1" layer="-1.00" shape="2312.518556,3389.291450 2310.817812,3383.654285 2299.824613,3386.969994 2301.508346,3392.618063 2311.891302,3389.484101 2312.518556,3389.291450"/>
    <poly id="247844198" type="building.yes" color="255,230,230" fill="1" layer="-1.00" shape="2313.819867,3395.878821 2311.891302,3389.484101 2301.508346,3392.618063 2303.411582,3399.012490 2309.717639,3397.108562 2313.819867,3395.878821"/>
    <poly id="247844200" type="building.yes" color="255,230,230" fill="1" layer="-1.00" shape="2311.995290,3405.472359 2313.597203,3404.991118 2315.062436,3406.118121 2329.488363,3401.764868 2327.217953,3394.244911 2312.631041,3398.640732 2312.322476,3399.769613 2310.669635,3400.272475 2309.717639,3397.108562 2303.411582,3399.012490 2306.949901,3410.876798 2313.061068,3409.026150 2311.995290,3405.472359"/>
    <poly id="247844202" type="building.yes" color="255,230,230" fill="1" layer="-1.00" shape="2331.458319,3353.693018 2339.853389,3351.557707 2339.740241,3351.112325 2348.914848,3348.763917 2347.677018,3344.009118 2334.978385,3347.249717 2327.161572,3351.256818 2328.603299,3356.646771 2331.991805,3355.786333 2331.458319,3353.693018"/>
    <poly id="247844205" type="building.yes" color="255,230,230" fill="1" layer="-1.00" shape="2333.554539,3402.943887 2313.061068,3409.026150 2306.949901,3410.876798 2308.690706,3416.703157 2324.904956,3411.815280 2324.766726,3411.347406 2335.140713,3408.257783 2333.554539,3402.943887"/>
    <poly id="247844206" type="building.yes" color="255,230,230" fill="1" layer="-1.00" shape="2324.904956,3411.815280 2308.690706,3416.703157 2310.366233,3422.328931 2326.597491,3417.430150 2324.904956,3411.815280"/>
    <poly id="247844208" type="building.yes" color="255,230,230" fill="1" layer="-1.00" shape="2348.914848,3348.763917 2339.740241,3351.112325 2339.853389,3351.557707 2331.458319,3353.693018 2331.991805,3355.786333 2332.686822,3358.525422 2329.332226,3359.375147 2333.341632,3374.353462 2354.189591,3369.041362 2348.914848,3348.763917"/>
    <poly id="247844209" type="building.yes" color="255,230,230" fill="1" layer="-1.00" shape="2326.597491,3417.430150 2310.366233,3422.328931 2312.098459,3428.166295 2328.355042,3423.267809 2326.597491,3417.430150"/>
    <poly id="247844212" type="building.yes" color="255,230,230" fill="1" layer="-1.00" shape="2333.163373,3428.230058 2333.287964,3421.781148 2328.355042,3423.267809 2312.098459,3428.166295 2313.953166,3434.371433 2329.391549,3429.374758 2333.163373,3428.230058"/>
    <poly id="247844214" type="building.yes" color="255,230,230" fill="1" layer="-1.00" shape="2329.391549,3429.374758 2313.953166,3434.371433 2318.036176,3448.084942 2333.796858,3442.969846 2329.391549,3429.374758"/>
    <poly id="247844216" type="building.yes" color="255,230,230" fill="1" layer="-1.00" shape="2355.807933,3375.232700 2354.189591,3369.041362 2333.341632,3374.353462 2328.131759,3375.681520 2328.630953,3377.818849 2327.123078,3378.201246 2328.165856,3382.287678 2330.724277,3381.628666 2355.807933,3375.232700"/>
    <poly id="247844218" type="building.yes" color="255,230,230" fill="1" layer="-1.00" shape="2355.807933,3375.232700 2330.724277,3381.628666 2332.284281,3387.752717 2357.401700,3381.357143 2355.807933,3375.232700"/>
    <poly id="247844220" type="building.yes" color="255,230,230" fill="1" layer="-1.00" shape="2357.401700,3381.357143 2332.284281,3387.752717 2331.428617,3387.976055 2332.980555,3394.066706 2358.979209,3387.425889 2357.401700,3381.357143"/>
    <poly id="247844224" type="building.yes" color="255,230,230" fill="1" layer="-1.00" shape="2333.796858,3442.969846 2318.036176,3448.084942 2320.159012,3455.214632 2336.097670,3450.046070 2333.796858,3442.969846"/>
    <poly id="247844231" type="building.yes" color="255,230,230" fill="1" layer="-1.00" shape="2336.097670,3450.046070 2320.159012,3455.214632 2322.217079,3462.099334 2338.308504,3456.865915 2336.097670,3450.046070"/>
    <poly id="247844232" type="building.yes" color="255,230,230" fill="1" layer="-1.00" shape="2338.308504,3456.865915 2322.217079,3462.099334 2324.396862,3469.418414 2340.666135,3464.142630 2338.308504,3456.865915"/>
    <poly id="247844233" type="building.yes" color="255,230,230" fill="1" layer="-1.00" shape="2347.329780,3461.987485 2340.666135,3464.142630 2324.396862,3469.418414 2327.682972,3480.436082 2350.870240,3472.919262 2349.785436,3469.553983 2347.909043,3463.770466 2347.329780,3461.987485"/>
    <poly id="247844234" type="building.yes" color="255,230,230" fill="1" layer="-1.00" shape="2365.427191,3412.190955 2341.707563,3418.236151 2345.859829,3431.062300 2368.436907,3423.738375 2365.427191,3412.190955"/>
    <poly id="247844235" type="building.yes" color="255,230,230" fill="1" layer="-1.00" shape="2354.565355,3479.201021 2352.370924,3472.425768 2350.870240,3472.919262 2327.682972,3480.436082 2329.651306,3487.042205 2334.559487,3485.499751 2344.596325,3482.339666 2349.589221,3480.775989 2354.565355,3479.201021"/>
    <poly id="247844237" type="building.yes" color="255,230,230" fill="1" layer="-1.00" shape="2337.439355,3491.427992 2345.441667,3488.910716 2346.806251,3489.237219 2351.765233,3487.684257 2349.589221,3480.775989 2344.596325,3482.339666 2344.080442,3483.133106 2336.010307,3485.671810 2334.559487,3485.499751 2329.651306,3487.042205 2331.733546,3494.027106 2336.565460,3492.505984 2337.439355,3491.427992"/>
    <poly id="247844238" type="building.yes" color="255,230,230" fill="1" layer="-1.00" shape="2370.936826,3433.337077 2368.436907,3423.738375 2345.859829,3431.062300 2343.562341,3431.802012 2346.621722,3441.229484 2350.614905,3439.931901 2370.936826,3433.337077"/>
    <poly id="247844241" type="building.yes" color="255,230,230" fill="1" layer="-1.00" shape="2370.936826,3433.337077 2350.614905,3439.931901 2352.197450,3444.823878 2372.231069,3438.325673 2370.936826,3433.337077"/>
    <poly id="247844244" type="building.yes" color="255,230,230" fill="1" layer="-1.00" shape="2373.541819,3443.347764 2372.231069,3438.325673 2352.197450,3444.823878 2346.042420,3446.818318 2347.641475,3451.743790 2349.379525,3451.175301 2373.541819,3443.347764"/>
    <poly id="247844249" type="building.yes" color="255,230,230" fill="1" layer="-1.00" shape="2373.541819,3443.347764 2349.379525,3451.175301 2352.398189,3460.469084 2376.001152,3452.801676 2373.541819,3443.347764"/>
    <poly id="247844254" type="building.yes" color="255,230,230" fill="1" layer="-1.00" shape="2377.983332,3460.407163 2376.001152,3452.801676 2352.398189,3460.469084 2352.936496,3462.140575 2347.909043,3463.770466 2349.785436,3469.553983 2352.125267,3468.803656 2377.983332,3460.407163"/>
    <poly id="247844258" type="building.yes" color="255,230,230" fill="1" layer="-1.00" shape="2379.851981,3467.600569 2377.983332,3460.407163 2352.125267,3468.803656 2354.409544,3475.846391 2355.409915,3475.524795 2379.851981,3467.600569"/>
    <poly id="247844261" type="building.yes" color="255,230,230" fill="1" layer="-1.00" shape="2381.826089,3475.172659 2379.851981,3467.600569 2355.409915,3475.524795 2357.824858,3482.957604 2358.214872,3482.828850 2381.826089,3475.172659"/>
    <poly id="247844264" type="building.yes" color="255,230,230" fill="1" layer="-1.00" shape="2382.767216,3474.861490 2381.826089,3475.172659 2358.214872,3482.828850 2361.039441,3492.842051 2385.444154,3485.961017 2382.767216,3474.861490"/>
    <poly id="247844307" type="building.yes" color="255,230,230" fill="1" layer="-1.00" shape="2328.603299,3356.646771 2327.161572,3351.256818 2326.416388,3348.472746 2320.884397,3351.373621 2322.350575,3356.841567 2323.848879,3362.454210 2324.501218,3362.284052 2326.340618,3369.088532 2327.653576,3373.921903 2328.131759,3375.681520 2333.341632,3374.353462 2329.332226,3359.375147 2328.603299,3356.646771"/>
    <poly id="247844310" type="building.yes" color="255,230,230" fill="1" layer="-1.00" shape="2326.340618,3369.088532 2324.683854,3368.458929 2323.699858,3365.139218 2322.987892,3365.353102 2321.898047,3361.688012 2322.703295,3361.441891 2321.759744,3358.278074 2322.350575,3356.841567 2320.884397,3351.373621 2303.731555,3360.025480 2306.074194,3367.879320 2306.594865,3369.617218 2308.595122,3369.018416 2309.587442,3372.349322 2307.468567,3372.980071 2309.371804,3379.374499 2327.653576,3373.921903 2326.340618,3369.088532"/>
    <poly id="247844322" type="building.yes" color="255,230,230" fill="1" layer="-1.00" shape="2326.697115,3378.518326 2319.641857,3380.935455 2321.259971,3387.148985 2328.452563,3385.277436 2326.697115,3378.518326"/>
    <poly id="247844326" type="building.yes" color="255,230,230" fill="1" layer="-1.00" shape="2346.091171,3337.929177 2326.416388,3348.472746 2327.161572,3351.256818 2334.978385,3347.249717 2347.677018,3344.009118 2346.091171,3337.929177"/>
    <poly id="247844329" type="building.yes" color="255,230,230" fill="1" layer="-1.00" shape="2358.979209,3387.425889 2332.980555,3394.066706 2331.438520,3394.482017 2338.911409,3419.003455 2341.707563,3418.236151 2365.427191,3412.190955 2365.160201,3411.166498 2359.213947,3388.316751 2358.979209,3387.425889"/>
    <poly id="247844340" type="building.yes" color="255,230,230" fill="1" layer="-1.00" shape="2303.731555,3360.025480 2293.431394,3365.514054 2299.409791,3385.577476 2304.935822,3383.931058 2304.447662,3382.304554 2308.829488,3381.000299 2305.152924,3368.668118 2304.302855,3368.403030 2306.074194,3367.879320 2303.731555,3360.025480"/>
    <poly id="247845614" type="building.yes" color="255,230,230" fill="1" layer="-1.00" shape="2274.312074,3375.509014 2268.406107,3378.616584 2272.237414,3390.717373 2278.502132,3388.735230 2274.312074,3375.509014"/>
    <poly id="247845616" type="building.yes" color="255,230,230" fill="1" layer="-1.00" shape="2268.406107,3378.616584 2262.347110,3381.811223 2266.178425,3393.912009 2272.604238,3391.876195 2272.237414,3390.717373 2268.406107,3378.616584"/>
    <poly id="247845620" type="building.yes" color="255,230,230" fill="1" layer="-1.00" shape="2266.178425,3393.912009 2262.347110,3381.811223 2256.968078,3384.636181 2261.410945,3398.653532 2263.448705,3405.105000 2269.088573,3403.104592 2266.178425,3393.912009"/>
    <poly id="247845622" type="building.yes" color="255,230,230" fill="1" layer="-1.00" shape="2290.163388,3408.208710 2286.690569,3396.522796 2277.802352,3399.685015 2278.538921,3401.747346 2278.034136,3403.784356 2272.606293,3405.709470 2270.591900,3405.331132 2269.716206,3402.878635 2269.088573,3403.104592 2263.448705,3405.105000 2260.811113,3406.040681 2262.873389,3411.826301 2265.850196,3410.772382 2267.118559,3414.339588 2281.332868,3409.284386 2281.030050,3408.437155 2282.293761,3407.985341 2283.014729,3408.459888 2283.743231,3410.488820 2290.163388,3408.208710"/>