<?xml version="1.0" encoding="UTF-8"?>

<!-- generated on Tue Sep 10 14:40:55 2019 by Eclipse SUMO duarouter Version 1.2.0
<configuration xmlns:xsi="http://www.w3.org/2001/XMLSchema-instance" xsi:noNamespaceSchemaLocation="http://sumo.dlr.de/xsd/duarouterConfiguration.xsd">

    <input>
        <net-file value="/home/werer/sumo/tools/2019-09-10-14-40-46/osm.net.xml"/>
        <route-files value="/home/werer/sumo/tools/2019-09-10-14-40-46/osm.passenger.trips.xml"/>
    </input>

    <output>
        <output-file value="/home/werer/sumo/tools/2019-09-10-14-40-46/osm.passenger.trips.xml.tmp"/>
        <write-trips value="true"/>
    </output>

    <time>
        <begin value="0"/>
        <end value="3600.0"/>
    </time>

    <report>
        <no-warnings value="true"/>
        <ignore-errors value="true"/>
        <no-step-log value="true"/>
    </report>

</configuration>
-->

<routes xmlns:xsi="http://www.w3.org/2001/XMLSchema-instance" xsi:noNamespaceSchemaLocation="http://sumo.dlr.de/xsd/routes_file.xsd">
    <vType id="veh_passenger" vClass="passenger"/>
    <trip id="veh0" type="veh_passenger" depart="0.00" departLane="best" departSpeed="max" from="32922453" to="231393429"/>
    <trip id="veh1" type="veh_passenger" depart="0.71" departLane="best" departSpeed="max" from="5670092#0" to="497002544#1"/>
    <trip id="veh2" type="veh_passenger" depart="1.41" departLane="best" departSpeed="max" from="5672911#0" to="-68668559#1"/>
    <trip id="veh3" type="veh_passenger" depart="2.12" departLane="best" departSpeed="max" from="420352242#0" to="-275016228#3"/>
    <trip id="veh4" type="veh_passenger" depart="2.82" departLane="best" departSpeed="max" from="22927411#0" to="46139041#1"/>
    <trip id="veh5" type="veh_passenger" depart="3.53" departLane="best" departSpeed="max" from="-421832642" to="222299272"/>
    <trip id="veh6" type="veh_passenger" depart="4.24" departLane="best" departSpeed="max" from="466956272" to="46171880"/>
    <trip id="veh7" type="veh_passenger" depart="4.94" departLane="best" from="22927411#4" to="46201679#1"/>
    <trip id="veh8" type="veh_passenger" depart="5.65" departLane="best" departSpeed="max" from="5671083#0" to="-250049337"/>
    <trip id="veh9" type="veh_passenger" depart="6.36" departLane="best" from="612743237#0" to="413054286#2"/>
    <trip id="veh10" type="veh_passenger" depart="7.06" departLane="best" from="-496977101#4" to="110854073#1"/>
    <trip id="veh11" type="veh_passenger" depart="7.77" departLane="best" departSpeed="max" from="5672377#0" to="46332295#2"/>
    <trip id="veh12" type="veh_passenger" depart="8.47" departLane="best" departSpeed="max" from="5671083#0" to="524394634#5"/>
    <trip id="veh13" type="veh_passenger" depart="9.18" departLane="best" from="46116390#1" to="643000849#1"/>
    <trip id="veh15" type="veh_passenger" depart="10.59" departLane="best" departSpeed="max" from="5672377#0" to="46201679#1"/>
    <trip id="veh17" type="veh_passenger" depart="12.01" departLane="best" departSpeed="max" from="250049337" to="309148657"/>
    <trip id="veh18" type="veh_passenger" depart="12.71" departLane="best" departSpeed="max" from="-560788342#2" to="309148657"/>
    <trip id="veh19" type="veh_passenger" depart="13.42" departLane="best" from="46334662#3" to="420358895"/>
    <trip id="veh20" type="veh_passenger" depart="14.12" departLane="best" departSpeed="max" from="413050335#0" to="22927462#3"/>
    <trip id="veh21" type="veh_passenger" depart="14.83" departLane="best" departSpeed="max" from="32922453" to="5672911#2"/>
    <trip id="veh22" type="veh_passenger" depart="15.54" departLane="best" departSpeed="max" from="466956272" to="46334662#3"/>
    <trip id="veh23" type="veh_passenger" depart="16.24" departLane="best" from="194923776#2" to="524394634#4"/>
    <trip id="veh24" type="veh_passenger" depart="16.95" departLane="best" from="127691872#4" to="420809417#1"/>
    <trip id="veh25" type="veh_passenger" depart="17.66" departLane="best" from="675967321#0" to="496990369#1"/>
    <trip id="veh26" type="veh_passenger" depart="18.36" departLane="best" departSpeed="max" from="46139033" to="497002544#1"/>
    <trip id="veh27" type="veh_passenger" depart="19.07" departLane="best" from="5672110" to="5669205#1"/>
    <trip id="veh28" type="veh_passenger" depart="19.77" departLane="best" departSpeed="max" from="250049337" to="-410302891#0"/>
    <trip id="veh29" type="veh_passenger" depart="20.48" departLane="best" from="342785522" to="256902830#0"/>
    <trip id="veh30" type="veh_passenger" depart="21.19" departLane="best" departSpeed="max" from="22927411#0" to="5673210#4"/>
    <trip id="veh31" type="veh_passenger" depart="21.89" departLane="best" departSpeed="max" from="5672402#0" to="412115641#3"/>
    <trip id="veh32" type="veh_passenger" depart="22.60" departLane="best" from="467222856#4" to="420890090#2"/>
    <trip id="veh33" type="veh_passenger" depart="23.31" departLane="best" departSpeed="max" from="584850105#0" to="451954039#4"/>
    <trip id="veh34" type="veh_passenger" depart="24.01" departLane="best" from="275016228#3" to="256902826#1"/>
    <trip id="veh35" type="veh_passenger" depart="24.72" departLane="best" departSpeed="max" from="46179210" to="5671920#2"/>
    <trip id="veh36" type="veh_passenger" depart="25.42" departLane="best" departSpeed="max" from="415882710" to="231393429"/>
    <trip id="veh37" type="veh_passenger" depart="26.13" departLane="best" from="68668559#7" to="46139041#1"/>
    <trip id="veh38" type="veh_passenger" depart="26.84" departLane="best" from="-480972178" to="-420358887"/>
    <trip id="veh39" type="veh_passenger" depart="27.54" departLane="best" departSpeed="max" from="-560788342#2" to="496982789#2"/>
    <trip id="veh40" type="veh_passenger" depart="28.25" departLane="best" departSpeed="max" from="5670922#0" to="421832642"/>
    <trip id="veh41" type="veh_passenger" depart="28.96" departLane="best" departSpeed="max" from="-46201679#2" to="420809417#1"/>
    <trip id="veh42" type="veh_passenger" depart="29.66" departLane="best" from="68668559#1" to="46154296#6"/>
    <trip id="veh43" type="veh_passenger" depart="30.37" departLane="best" departSpeed="max" from="675913202#0" to="5671111#6"/>
    <trip id="veh44" type="veh_passenger" depart="31.07" departLane="best" from="-420358887" to="497769952"/>
    <trip id="veh45" type="veh_passenger" depart="31.78" departLane="best" departSpeed="max" from="526503345" to="46154296#6"/>
    <trip id="veh46" type="veh_passenger" depart="32.49" departLane="best" departSpeed="max" from="32922453" to="497002544#1"/>
    <trip id="veh47" type="veh_passenger" depart="33.19" departLane="best" departSpeed="max" from="-560788342#2" to="421832642"/>
    <trip id="veh48" type="veh_passenger" depart="33.90" departLane="best" departSpeed="max" from="420809411#0" to="5673424#1"/>
    <trip id="veh49" type="veh_passenger" depart="34.61" departLane="best" departSpeed="max" from="5672402#0" to="256902826#1"/>
    <trip id="veh50" type="veh_passenger" depart="35.31" departLane="best" from="439842836#0" to="196116989#0"/>
    <trip id="veh51" type="veh_passenger" depart="36.02" departLane="best" departSpeed="max" from="584850105#0" to="5671111#6"/>
    <trip id="veh53" type="veh_passenger" depart="37.43" departLane="best" departSpeed="max" from="46189305" to="188559800#3"/>
    <trip id="veh54" type="veh_passenger" depart="38.14" departLane="best" from="5670366#7" to="46154296#6"/>
    <trip id="veh55" type="veh_passenger" depart="38.84" departLane="best" from="5670728#0" to="46154296#6"/>
    <trip id="veh56" type="veh_passenger" depart="39.55" departLane="best" from="-125525171#2" to="412115641#3"/>
    <trip id="veh57" type="veh_passenger" depart="40.26" departLane="best" departSpeed="max" from="-421832642" to="5672871#4"/>
    <trip id="veh58" type="veh_passenger" depart="40.96" departLane="best" departSpeed="max" from="5672402#0" to="5670418#2"/>
    <trip id="veh60" type="veh_passenger" depart="42.37" departLane="best" departSpeed="max" from="5672402#0" to="5673210#4"/>
    <trip id="veh61" type="veh_passenger" depart="43.08" departLane="best" departSpeed="max" from="-46201679#2" to="46116314#1"/>
    <trip id="veh62" type="veh_passenger" depart="43.79" departLane="best" departSpeed="max" from="5670440#0" to="181546839#1"/>
    <trip id="veh63" type="veh_passenger" depart="44.49" departLane="best" departSpeed="max" from="420809411#0" to="46171880"/>
    <trip id="veh64" type="veh_passenger" depart="45.20" departLane="best" from="275016228#3" to="5671111#6"/>
    <trip id="veh65" type="veh_passenger" depart="45.91" departLane="best" departSpeed="max" from="420352242#0" to="22927462#3"/>
    <trip id="veh66" type="veh_passenger" depart="46.61" departLane="best" departSpeed="max" from="46139033" to="524394634#5"/>
    <trip id="veh67" type="veh_passenger" depart="47.32" departLane="best" from="221687794#2" to="412115641#3"/>
    <trip id="veh68" type="veh_passenger" depart="48.02" departLane="best" from="68668553#0" to="497002544#1"/>
    <trip id="veh69" type="veh_passenger" depart="48.73" departLane="best" departSpeed="max" from="420352242#0" to="46139041#1"/>
    <trip id="veh70" type="veh_passenger" depart="49.44" departLane="best" departSpeed="max" from="-560788342#2" to="231393429"/>
    <trip id="veh71" type="veh_passenger" depart="50.14" departLane="best" departSpeed="max" from="40709921" to="46201679#1"/>
    <trip id="veh72" type="veh_passenger" depart="50.85" departLane="best" departSpeed="max" from="250049337" to="231393429"/>
    <trip id="veh73" type="veh_passenger" depart="51.56" departLane="best" departSpeed="max" from="-46201679#2" to="496986997"/>
    <trip id="veh74" type="veh_passenger" depart="52.26" departLane="best" departSpeed="max" from="250049337" to="5671920#2"/>
    <trip id="veh75" type="veh_passenger" depart="52.97" departLane="best" departSpeed="max" from="5672377#0" to="-560788343"/>
    <trip id="veh76" type="veh_passenger" depart="53.67" departLane="best" departSpeed="max" from="250267912#0" to="497002544#1"/>
    <trip id="veh77" type="veh_passenger" depart="54.38" departLane="best" departSpeed="max" from="22927411#0" to="181546839#1"/>
    <trip id="veh78" type="veh_passenger" depart="55.09" departLane="best" from="584971525#6" to="46201679#1"/>
    <trip id="veh79" type="veh_passenger" depart="55.79" departLane="best" departSpeed="max" from="5671083#0" to="222299238#1"/>
    <trip id="veh80" type="veh_passenger" depart="56.50" departLane="best" departSpeed="max" from="-560788342#2" to="421832642"/>
    <trip id="veh81" type="veh_passenger" depart="57.21" departLane="best" departSpeed="max" from="420352242#0" to="451954039#4"/>
    <trip id="veh82" type="veh_passenger" depart="57.91" departLane="best" from="5669938#1" to="497002544#1"/>
    <trip id="veh83" type="veh_passenger" depart="58.62" departLane="best" departSpeed="max" from="675913202#0" to="110854073#1"/>
    <trip id="veh84" type="veh_passenger" depart="59.32" departLane="best" departSpeed="max" from="415882710" to="413054857#6"/>
    <trip id="veh85" type="veh_passenger" depart="60.03" departLane="best" departSpeed="max" from="5672377#0" to="256902826#1"/>
    <trip id="veh86" type="veh_passenger" depart="60.74" departLane="best" departSpeed="max" from="420352242#0" to="309148657"/>
    <trip id="veh87" type="veh_passenger" depart="61.44" departLane="best" departSpeed="max" from="25199870#0" to="5672871#2"/>
    <trip id="veh88" type="veh_passenger" depart="62.15" departLane="best" from="420358887" to="5671111#6"/>
    <trip id="veh89" type="veh_passenger" depart="62.86" departLane="best" from="68668562#3" to="5670418#2"/>
    <trip id="veh90" type="veh_passenger" depart="63.56" departLane="best" departSpeed="max" from="675913202#0" to="5672871#4"/>
    <trip id="veh91" type="veh_passenger" depart="64.27" departLane="best" departSpeed="max" from="5672377#0" to="194923776#1"/>
    <trip id="veh92" type="veh_passenger" depart="64.97" departLane="best" from="421825694#0" to="22927462#3"/>
    <trip id="veh93" type="veh_passenger" depart="65.68" departLane="best" departSpeed="max" from="415882710" to="-46116314#1"/>
    <trip id="veh94" type="veh_passenger" depart="66.39" departLane="best" departSpeed="max" from="413050335#0" to="653406301#1"/>
    <trip id="veh95" type="veh_passenger" depart="67.09" departLane="best" from="275016228#4" to="5669322#3"/>
    <trip id="veh96" type="veh_passenger" depart="67.80" departLane="best" departSpeed="max" from="420809411#0" to="421832642"/>
    <trip id="veh97" type="veh_passenger" depart="68.51" departLane="best" from="612743237#0" to="68668553#0"/>
    <trip id="veh98" type="veh_passenger" depart="69.21" departLane="best" departSpeed="max" from="46139033" to="497769952"/>
    <trip id="veh99" type="veh_passenger" depart="69.92" departLane="best" from="112116236" to="351540632#0"/>
    <trip id="veh100" type="veh_passenger" depart="70.62" departLane="best" departSpeed="max" from="675913202#0" to="46201679#1"/>
    <trip id="veh101" type="veh_passenger" depart="71.33" departLane="best" departSpeed="max" from="46139033" to="560788342#2"/>
    <trip id="veh102" type="veh_passenger" depart="72.04" departLane="best" from="-454031476#3" to="46201679#1"/>
    <trip id="veh103" type="veh_passenger" depart="72.74" departLane="best" from="439933951" to="5670814#2"/>
    <trip id="veh104" type="veh_passenger" depart="73.45" departLane="best" from="124814435#4" to="584971525#5"/>
    <trip id="veh105" type="veh_passenger" depart="74.16" departLane="best" departSpeed="max" from="-46201679#2" to="222299238#1"/>
    <trip id="veh106" type="veh_passenger" depart="74.86" departLane="best" departSpeed="max" from="46179210" to="497002544#1"/>
    <trip id="veh107" type="veh_passenger" depart="75.57" departLane="best" departSpeed="max" from="250267912#0" to="125436141#3"/>
    <trip id="veh108" type="veh_passenger" depart="76.27" departLane="best" departSpeed="max" from="5672911#0" to="256902826#1"/>
    <trip id="veh109" type="veh_passenger" depart="76.98" departLane="best" departSpeed="max" from="46179210" to="485056260#1"/>
    <trip id="veh110" type="veh_passenger" depart="77.69" departLane="best" departSpeed="max" from="420352242#0" to="46201679#1"/>
    <trip id="veh111" type="veh_passenger" depart="78.39" departLane="best" from="452319507#1" to="5672871#4"/>
    <trip id="veh112" type="veh_passenger" depart="79.10" departLane="best" from="222299277" to="497769952"/>
    <trip id="veh113" type="veh_passenger" depart="79.81" departLane="best" departSpeed="max" from="250267912#0" to="420890090#2"/>
    <trip id="veh115" type="veh_passenger" depart="81.22" departLane="best" departSpeed="max" from="-46201679#2" to="451954039#3"/>
    <trip id="veh116" type="veh_passenger" depart="81.92" departLane="best" departSpeed="max" from="-46201679#2" to="22927462#3"/>
    <trip id="veh117" type="veh_passenger" depart="82.63" departLane="best" from="275016228#4" to="5672871#4"/>
    <trip id="veh118" type="veh_passenger" depart="83.34" departLane="best" departSpeed="max" from="5672402#0" to="5671341#0"/>
    <trip id="veh119" type="veh_passenger" depart="84.04" departLane="best" departSpeed="max" from="413050335#0" to="188559800#8"/>
    <trip id="veh120" type="veh_passenger" depart="84.75" departLane="best" from="5671172#0" to="497769952"/>
    <trip id="veh121" type="veh_passenger" depart="85.46" departLane="best" departSpeed="max" from="46189305" to="655255187#9"/>
    <trip id="veh122" type="veh_passenger" depart="86.16" departLane="best" from="467222856#1" to="-250049337"/>
    <trip id="veh123" type="veh_passenger" depart="86.87" departLane="best" departSpeed="max" from="5671083#0" to="40337681"/>
    <trip id="veh124" type="veh_passenger" depart="87.57" departLane="best" from="496977101#5" to="5673210#3"/>
    <trip id="veh125" type="veh_passenger" depart="88.28" departLane="best" from="-653406301#1" to="122660459"/>
    <trip id="veh126" type="veh_passenger" depart="88.99" departLane="best" departSpeed="max" from="-560788342#2" to="46171880"/>
    <trip id="veh127" type="veh_passenger" depart="89.69" departLane="best" departSpeed="max" from="32922453" to="46332299#0"/>
    <trip id="veh128" type="veh_passenger" depart="90.40" departLane="best" departSpeed="max" from="5669882#0" to="22927411#6"/>
    <trip id="veh129" type="veh_passenger" depart="91.11" departLane="best" from="46334662#0" to="256902826#1"/>
    <trip id="veh131" type="veh_passenger" depart="92.52" departLane="best" departSpeed="max" from="5672377#0" to="110854073#1"/>
    <trip id="veh132" type="veh_passenger" depart="93.22" departLane="best" departSpeed="max" from="420352242#0" to="309148657"/>
    <trip id="veh133" type="veh_passenger" depart="93.93" departLane="best" from="-195743157" to="5669205#1"/>
    <trip id="veh134" type="veh_passenger" depart="94.64" departLane="best" from="46348767#1" to="256902826#1"/>
    <trip id="veh135" type="veh_passenger" depart="95.34" departLane="best" departSpeed="max" from="5670092#0" to="46171880"/>
    <trip id="veh136" type="veh_passenger" depart="96.05" departLane="best" departSpeed="max" from="420352242#0" to="-250049337"/>
    <trip id="veh137" type="veh_passenger" depart="96.76" departLane="best" departSpeed="max" from="-46201679#2" to="5671354#4"/>
    <trip id="veh138" type="veh_passenger" depart="97.46" departLane="best" from="5673424#1" to="46171880"/>
    <trip id="veh139" type="veh_passenger" depart="98.17" departLane="best" from="5671172#2" to="46201679#1"/>
    <trip id="veh140" type="veh_passenger" depart="98.87" departLane="best" departSpeed="max" from="112116235#0" to="166038145#0"/>
    <trip id="veh142" type="veh_passenger" depart="100.29" departLane="best" from="5672911#3" to="22927462#3"/>
    <trip id="veh143" type="veh_passenger" depart="100.99" departLane="best" departSpeed="max" from="25199870#0" to="112116234#1"/>
    <trip id="veh144" type="veh_passenger" depart="101.70" departLane="best" from="5670820#0" to="5671354#4"/>
    <trip id="veh145" type="veh_passenger" depart="102.41" departLane="best" departSpeed="max" from="415882710" to="485056263#0"/>
    <trip id="veh146" type="veh_passenger" depart="103.11" departLane="best" from="112116235#6" to="5672871#4"/>
    <trip id="veh147" type="veh_passenger" depart="103.82" departLane="best" departSpeed="max" from="5672377#0" to="643000849#1"/>
    <trip id="veh148" type="veh_passenger" depart="104.52" departLane="best" departSpeed="max" from="5671083#0" to="5671354#4"/>
    <trip id="veh150" type="veh_passenger" depart="105.94" departLane="best" departSpeed="max" from="40709921" to="5672871#4"/>
    <trip id="veh152" type="veh_passenger" depart="107.35" departLane="best" departSpeed="max" from="5670922#0" to="122660459"/>
    <trip id="veh153" type="veh_passenger" depart="108.06" departLane="best" departSpeed="max" from="5672402#0" to="5670932#1"/>
    <trip id="veh154" type="veh_passenger" depart="108.76" departLane="best" departSpeed="max" from="250049337" to="5670366#10"/>
    <trip id="veh155" type="veh_passenger" depart="109.47" departLane="best" departSpeed="max" from="5671083#0" to="231393429"/>
    <trip id="veh156" type="veh_passenger" depart="110.17" departLane="best" departSpeed="max" from="675913202#0" to="309148657"/>
    <trip id="veh157" type="veh_passenger" depart="110.88" departLane="best" departSpeed="max" from="466956272" to="420890090#2"/>
    <trip id="veh158" type="veh_passenger" depart="111.59" departLane="best" departSpeed="max" from="675913202#0" to="46154296#6"/>
    <trip id="veh159" type="veh_passenger" depart="112.29" departLane="best" departSpeed="max" from="675913202#0" to="196116989#0"/>
    <trip id="veh160" type="veh_passenger" depart="113.00" departLane="best" from="655255187#9" to="256902826#1"/>
    <trip id="veh161" type="veh_passenger" depart="113.71" departLane="best" departSpeed="max" from="-560788342#2" to="421832642"/>
    <trip id="veh162" type="veh_passenger" depart="114.41" departLane="best" from="5669935#1" to="412115641#3"/>
    <trip id="veh163" type="veh_passenger" depart="115.12" departLane="best" departSpeed="max" from="46179210" to="46139041#1"/>
    <trip id="veh164" type="veh_passenger" depart="115.82" departLane="best" from="413054857#7" to="46201679#1"/>
    <trip id="veh165" type="veh_passenger" depart="116.53" departLane="best" departSpeed="max" from="25199870#0" to="497769952"/>
    <trip id="veh166" type="veh_passenger" depart="117.24" departLane="best" from="-165777195#0" to="5672871#4"/>
    <trip id="veh167" type="veh_passenger" depart="117.94" departLane="best" departSpeed="max" from="46139033" to="497769952"/>
    <trip id="veh168" type="veh_passenger" depart="118.65" departLane="best" departSpeed="max" from="5670092#0" to="497002544#1"/>
    <trip id="veh169" type="veh_passenger" depart="119.36" departLane="best" from="412180553#10" to="-560788342#0"/>
    <trip id="veh170" type="veh_passenger" depart="120.06" departLane="best" from="496982627#0" to="412174929#4"/>
    <trip id="veh172" type="veh_passenger" depart="121.47" departLane="best" departSpeed="max" from="5669882#0" to="40709918#1"/>
    <trip id="veh174" type="veh_passenger" depart="122.89" departLane="best" departSpeed="max" from="415882710" to="348488662#0"/>
    <trip id="veh175" type="veh_passenger" depart="123.59" departLane="best" from="-584971525#1" to="421832642"/>
    <trip id="veh176" type="veh_passenger" depart="124.30" departLane="best" from="587038051" to="497002544#1"/>
    <trip id="veh177" type="veh_passenger" depart="125.01" departLane="best" from="5673316#4" to="467222856#2"/>
    <trip id="veh179" type="veh_passenger" depart="126.42" departLane="best" from="-125525171#1" to="309148657"/>
    <trip id="veh180" type="veh_passenger" depart="127.12" departLane="best" departSpeed="max" from="420352242#0" to="46201679#1"/>
    <trip id="veh181" type="veh_passenger" depart="127.83" departLane="best" from="467222856#2" to="451954039#4"/>
    <trip id="veh182" type="veh_passenger" depart="128.54" departLane="best" from="420357268#1" to="22927462#3"/>
    <trip id="veh183" type="veh_passenger" depart="129.24" departLane="best" departSpeed="max" from="420809411#0" to="5671920#2"/>
    <trip id="veh184" type="veh_passenger" depart="129.95" departLane="best" departSpeed="max" from="5671083#0" to="195743130#2"/>
    <trip id="veh185" type="veh_passenger" depart="130.66" departLane="best" departSpeed="max" from="-46201679#2" to="46139041#1"/>
    <trip id="veh186" type="veh_passenger" depart="131.36" departLane="best" from="46332301#3" to="413050335#1"/>
    <trip id="veh187" type="veh_passenger" depart="132.07" departLane="best" departSpeed="max" from="5671083#0" to="560788342#2"/>
    <trip id="veh188" type="veh_passenger" depart="132.77" departLane="best" from="524387550#1" to="231393429"/>
    <trip id="veh189" type="veh_passenger" depart="133.48" departLane="best" from="221687792#4" to="-250267912#0"/>
    <trip id="veh190" type="veh_passenger" depart="134.19" departLane="best" departSpeed="max" from="250267912#0" to="452319507#4"/>
    <trip id="veh191" type="veh_passenger" depart="134.89" departLane="best" departSpeed="max" from="5672377#0" to="-5669892#3"/>
    <trip id="veh192" type="veh_passenger" depart="135.60" departLane="best" departSpeed="max" from="415882710" to="496986997"/>
    <trip id="veh193" type="veh_passenger" depart="136.31" departLane="best" from="196116978#2" to="497769952"/>
    <trip id="veh194" type="veh_passenger" depart="137.01" departLane="best" from="438901427#2" to="256902826#1"/>
    <trip id="veh195" type="veh_passenger" depart="137.72" departLane="best" from="467222856#8" to="-250049337"/>
    <trip id="veh196" type="veh_passenger" depart="138.42" departLane="best" departSpeed="max" from="5670193#0" to="5669205#1"/>
    <trip id="veh197" type="veh_passenger" depart="139.13" departLane="best" departSpeed="max" from="-560788342#2" to="421832642"/>
    <trip id="veh198" type="veh_passenger" depart="139.84" departLane="best" from="195743178" to="584850105#2"/>
    <trip id="veh199" type="veh_passenger" depart="140.54" departLane="best" from="451954039#0" to="-438901427#1"/>
    <trip id="veh200" type="veh_passenger" depart="141.25" departLane="best" departSpeed="max" from="25199870#0" to="5670814#2"/>
    <trip id="veh201" type="veh_passenger" depart="141.96" departLane="best" departSpeed="max" from="420809411#0" to="5669866#6"/>
    <trip id="veh202" type="veh_passenger" depart="142.66" departLane="best" from="496990369#1" to="662161063#4"/>
    <trip id="veh203" type="veh_passenger" depart="143.37" departLane="best" departSpeed="max" from="46179210" to="5673210#4"/>
    <trip id="veh204" type="veh_passenger" depart="144.07" departLane="best" departSpeed="max" from="5672911#0" to="46348768#1"/>
    <trip id="veh205" type="veh_passenger" depart="144.78" departLane="best" departSpeed="max" from="5669882#0" to="46139041#1"/>
    <trip id="veh207" type="veh_passenger" depart="146.19" departLane="best" departSpeed="max" from="5672911#0" to="560788342#0"/>
    <trip id="veh208" type="veh_passenger" depart="146.90" departLane="best" departSpeed="max" from="420809411#0" to="256902826#1"/>
    <trip id="veh209" type="veh_passenger" depart="147.61" departLane="best" departSpeed="max" from="25199870#0" to="496986997"/>
    <trip id="veh210" type="veh_passenger" depart="148.31" departLane="best" departSpeed="max" from="5670440#0" to="46139046#1"/>
    <trip id="veh211" type="veh_passenger" depart="149.02" departLane="best" departSpeed="max" from="-46201679#2" to="309148657"/>
    <trip id="veh212" type="veh_passenger" depart="149.72" departLane="best" departSpeed="max" from="32922453" to="412115641#3"/>
    <trip id="veh213" type="veh_passenger" depart="150.43" departLane="best" departSpeed="max" from="46139033" to="181546839#1"/>
    <trip id="veh214" type="veh_passenger" depart="151.14" departLane="best" departSpeed="max" from="250049337" to="497769952"/>
    <trip id="veh215" type="veh_passenger" depart="151.84" departLane="best" departSpeed="max" from="415882710" to="46171880"/>
    <trip id="veh216" type="veh_passenger" depart="152.55" departLane="best" departSpeed="max" from="420352242#0" to="22927462#3"/>
    <trip id="veh217" type="veh_passenger" depart="153.26" departLane="best" departSpeed="max" from="420352242#0" to="5671920#2"/>
    <trip id="veh218" type="veh_passenger" depart="153.96" departLane="best" departSpeed="max" from="46179210" to="497769952"/>
    <trip id="veh219" type="veh_passenger" depart="154.67" departLane="best" departSpeed="max" from="5672377#0" to="560788342#2"/>
    <trip id="veh220" type="veh_passenger" depart="155.37" departLane="best" departSpeed="max" from="413050335#0" to="-250049337"/>
    <trip id="veh221" type="veh_passenger" depart="156.08" departLane="best" departSpeed="max" from="410302891#0" to="560788342#2"/>
    <trip id="veh222" type="veh_passenger" depart="156.79" departLane="best" departSpeed="max" from="5672377#0" to="5673424#0"/>
    <trip id="veh223" type="veh_passenger" depart="157.49" departLane="best" departSpeed="max" from="420352242#0" to="560788342#2"/>
    <trip id="veh224" type="veh_passenger" depart="158.20" departLane="best" departSpeed="max" from="46139033" to="46332295#2"/>
    <trip id="veh225" type="veh_passenger" depart="158.91" departLane="best" from="22927411#4" to="231393429"/>
    <trip id="veh226" type="veh_passenger" depart="159.61" departLane="best" departSpeed="max" from="420352242#0" to="-250267912#0"/>
    <trip id="veh227" type="veh_passenger" depart="160.32" departLane="best" departSpeed="max" from="40709921" to="497002544#1"/>
    <trip id="veh228" type="veh_passenger" depart="161.02" departLane="best" departSpeed="max" from="415882710" to="188559800#8"/>
    <trip id="veh230" type="veh_passenger" depart="162.44" departLane="best" departSpeed="max" from="46189305" to="-250267912#0"/>
    <trip id="veh231" type="veh_passenger" depart="163.14" departLane="best" departSpeed="max" from="415882710" to="46171880"/>
    <trip id="veh232" type="veh_passenger" depart="163.85" departLane="best" departSpeed="max" from="-421832642" to="497002544#1"/>
    <trip id="veh233" type="veh_passenger" depart="164.56" departLane="best" from="-655255187#6" to="451954039#4"/>
    <trip id="veh234" type="veh_passenger" depart="165.26" departLane="best" departSpeed="max" from="-451954039#6" to="420809417#1"/>
    <trip id="veh235" type="veh_passenger" depart="165.97" departLane="best" from="5670366#2" to="420809417#1"/>
    <trip id="veh236" type="veh_passenger" depart="166.67" departLane="best" departSpeed="max" from="5670193#0" to="5670418#2"/>
    <trip id="veh237" type="veh_passenger" depart="167.38" departLane="best" departSpeed="max" from="25199870#0" to="-591772210#3"/>
    <trip id="veh239" type="veh_passenger" depart="168.79" departLane="best" from="95181773#1" to="420358888"/>
    <trip id="veh240" type="veh_passenger" depart="169.50" departLane="best" departSpeed="max" from="466956272" to="560788342#2"/>
    <trip id="veh241" type="veh_passenger" depart="170.21" departLane="best" departSpeed="max" from="607091411#0" to="222299277"/>
    <trip id="veh242" type="veh_passenger" depart="170.91" departLane="best" departSpeed="max" from="-421832642" to="188559800#1"/>
    <trip id="veh243" type="veh_passenger" depart="171.62" departLane="best" from="-5673424#2" to="497002544#1"/>
    <trip id="veh244" type="veh_passenger" depart="172.32" departLane="best" from="46139038#3" to="231393429"/>
    <trip id="veh245" type="veh_passenger" depart="173.03" departLane="best" from="556311124#4" to="560788342#2"/>
    <trip id="veh246" type="veh_passenger" depart="173.74" departLane="best" from="183010767" to="46332307#0"/>
    <trip id="veh247" type="veh_passenger" depart="174.44" departLane="best" departSpeed="max" from="5670193#0" to="122660459"/>